ClearAll

redirect modelo/fonte_ideal.dss
redirect modelo/trafo_mt_bt_ideal.dss
redirect modelo/carga_isource.dss

New Line.L phases=4 bus1=A.1.2.3.4 bus2=B.1.2.3.4 length=1 units=km 
~ r1=1.5518 x1=0.359412

redirect modelo/medidor.dss