ClearAll

New Circuit.Fonte phases=3 basekv=12.47 bus1=A.1.2.3 bus2=A.4.4.4 model=ideal

! 556,550 26/7
New Wiredata.Phase GMR=0.0303 DIAM=0.927 RAC=0.1859
~ NormAmps=730
~ Runits=mi radunits=in gmrunits=ft

! 4/0 ACSR
New Wiredata.Neutral GMR=0.00814 DIAM=0.563 RAC=0.592
~ NormAmps=340
~ Runits=mi radunits=in gmrunits=ft

New Linegeometry.PoleExample nconds=4 nphases=3 reduce=no
~ cond=1 Wire=Phase x= -4 h=29 units=ft
~ cond=2 Wire=Phase x= 3 h=29 units=ft
~ cond=3 Wire=Phase x= -1.5 h=29 units=ft
~ cond=4 Wire=Neutral x= 0 h=25 units=ft

/*
New Line.LineExample phases=4 bus1=A.1.2.3.4 bus2=B.1.2.3.4
~ Geometry=PoleExample
~ Length=3 units=mi
~ EarthModel=Carson

New Reactor.A phases=1 bus1=A.4 bus2=A.0 r=15 x=0
New Reactor.B phases=1 bus1=B.4 bus2=B.0 r=15 x=0
*/
New Line.A phases=4 bus1=A.1.2.3.4 bus2=A_1.1.2.3.4 Geometry=PoleExample Length=0.003 units=mi EarthModel=Carson
New Line.A_1 phases=4 bus1=A_1.1.2.3.4 bus2=A_2.1.2.3.4 Geometry=PoleExample Length=0.003 units=mi EarthModel=Carson
New Line.A_2 phases=4 bus1=A_2.1.2.3.4 bus2=A_3.1.2.3.4 Geometry=PoleExample Length=0.003 units=mi EarthModel=Carson
New Line.A_3 phases=4 bus1=A_3.1.2.3.4 bus2=A_4.1.2.3.4 Geometry=PoleExample Length=0.003 units=mi EarthModel=Carson
New Line.A_4 phases=4 bus1=A_4.1.2.3.4 bus2=A_5.1.2.3.4 Geometry=PoleExample Length=0.003 units=mi EarthModel=Carson
New Line.A_5 phases=4 bus1=A_5.1.2.3.4 bus2=A_6.1.2.3.4 Geometry=PoleExample Length=0.003 units=mi EarthModel=Carson
New Line.A_6 phases=4 bus1=A_6.1.2.3.4 bus2=A_7.1.2.3.4 Geometry=PoleExample Length=0.003 units=mi EarthModel=Carson
New Line.A_7 phases=4 bus1=A_7.1.2.3.4 bus2=A_8.1.2.3.4 Geometry=PoleExample Length=0.003 units=mi EarthModel=Carson
New Line.A_8 phases=4 bus1=A_8.1.2.3.4 bus2=A_9.1.2.3.4 Geometry=PoleExample Length=0.003 units=mi EarthModel=Carson
New Line.A_9 phases=4 bus1=A_9.1.2.3.4 bus2=A_10.1.2.3.4 Geometry=PoleExample Length=0.003 units=mi EarthModel=Carson
New Line.A_10 phases=4 bus1=A_10.1.2.3.4 bus2=A_11.1.2.3.4 Geometry=PoleExample Length=0.003 units=mi EarthModel=Carson
New Line.A_11 phases=4 bus1=A_11.1.2.3.4 bus2=A_12.1.2.3.4 Geometry=PoleExample Length=0.003 units=mi EarthModel=Carson
New Line.A_12 phases=4 bus1=A_12.1.2.3.4 bus2=A_13.1.2.3.4 Geometry=PoleExample Length=0.003 units=mi EarthModel=Carson
New Line.A_13 phases=4 bus1=A_13.1.2.3.4 bus2=A_14.1.2.3.4 Geometry=PoleExample Length=0.003 units=mi EarthModel=Carson
New Line.A_14 phases=4 bus1=A_14.1.2.3.4 bus2=A_15.1.2.3.4 Geometry=PoleExample Length=0.003 units=mi EarthModel=Carson
New Line.A_15 phases=4 bus1=A_15.1.2.3.4 bus2=A_16.1.2.3.4 Geometry=PoleExample Length=0.003 units=mi EarthModel=Carson
New Line.A_16 phases=4 bus1=A_16.1.2.3.4 bus2=A_17.1.2.3.4 Geometry=PoleExample Length=0.003 units=mi EarthModel=Carson
New Line.A_17 phases=4 bus1=A_17.1.2.3.4 bus2=A_18.1.2.3.4 Geometry=PoleExample Length=0.003 units=mi EarthModel=Carson
New Line.A_18 phases=4 bus1=A_18.1.2.3.4 bus2=A_19.1.2.3.4 Geometry=PoleExample Length=0.003 units=mi EarthModel=Carson
New Line.A_19 phases=4 bus1=A_19.1.2.3.4 bus2=A_20.1.2.3.4 Geometry=PoleExample Length=0.003 units=mi EarthModel=Carson
New Line.A_20 phases=4 bus1=A_20.1.2.3.4 bus2=A_21.1.2.3.4 Geometry=PoleExample Length=0.003 units=mi EarthModel=Carson
New Line.A_21 phases=4 bus1=A_21.1.2.3.4 bus2=A_22.1.2.3.4 Geometry=PoleExample Length=0.003 units=mi EarthModel=Carson
New Line.A_22 phases=4 bus1=A_22.1.2.3.4 bus2=A_23.1.2.3.4 Geometry=PoleExample Length=0.003 units=mi EarthModel=Carson
New Line.A_23 phases=4 bus1=A_23.1.2.3.4 bus2=A_24.1.2.3.4 Geometry=PoleExample Length=0.003 units=mi EarthModel=Carson
New Line.A_24 phases=4 bus1=A_24.1.2.3.4 bus2=A_25.1.2.3.4 Geometry=PoleExample Length=0.003 units=mi EarthModel=Carson
New Line.A_25 phases=4 bus1=A_25.1.2.3.4 bus2=A_26.1.2.3.4 Geometry=PoleExample Length=0.003 units=mi EarthModel=Carson
New Line.A_26 phases=4 bus1=A_26.1.2.3.4 bus2=A_27.1.2.3.4 Geometry=PoleExample Length=0.003 units=mi EarthModel=Carson
New Line.A_27 phases=4 bus1=A_27.1.2.3.4 bus2=A_28.1.2.3.4 Geometry=PoleExample Length=0.003 units=mi EarthModel=Carson
New Line.A_28 phases=4 bus1=A_28.1.2.3.4 bus2=A_29.1.2.3.4 Geometry=PoleExample Length=0.003 units=mi EarthModel=Carson
New Line.A_29 phases=4 bus1=A_29.1.2.3.4 bus2=A_30.1.2.3.4 Geometry=PoleExample Length=0.003 units=mi EarthModel=Carson
New Line.A_30 phases=4 bus1=A_30.1.2.3.4 bus2=A_31.1.2.3.4 Geometry=PoleExample Length=0.003 units=mi EarthModel=Carson
New Line.A_31 phases=4 bus1=A_31.1.2.3.4 bus2=A_32.1.2.3.4 Geometry=PoleExample Length=0.003 units=mi EarthModel=Carson
New Line.A_32 phases=4 bus1=A_32.1.2.3.4 bus2=A_33.1.2.3.4 Geometry=PoleExample Length=0.003 units=mi EarthModel=Carson
New Line.A_33 phases=4 bus1=A_33.1.2.3.4 bus2=A_34.1.2.3.4 Geometry=PoleExample Length=0.003 units=mi EarthModel=Carson
New Line.A_34 phases=4 bus1=A_34.1.2.3.4 bus2=A_35.1.2.3.4 Geometry=PoleExample Length=0.003 units=mi EarthModel=Carson
New Line.A_35 phases=4 bus1=A_35.1.2.3.4 bus2=A_36.1.2.3.4 Geometry=PoleExample Length=0.003 units=mi EarthModel=Carson
New Line.A_36 phases=4 bus1=A_36.1.2.3.4 bus2=A_37.1.2.3.4 Geometry=PoleExample Length=0.003 units=mi EarthModel=Carson
New Line.A_37 phases=4 bus1=A_37.1.2.3.4 bus2=A_38.1.2.3.4 Geometry=PoleExample Length=0.003 units=mi EarthModel=Carson
New Line.A_38 phases=4 bus1=A_38.1.2.3.4 bus2=A_39.1.2.3.4 Geometry=PoleExample Length=0.003 units=mi EarthModel=Carson
New Line.A_39 phases=4 bus1=A_39.1.2.3.4 bus2=A_40.1.2.3.4 Geometry=PoleExample Length=0.003 units=mi EarthModel=Carson
New Line.A_40 phases=4 bus1=A_40.1.2.3.4 bus2=A_41.1.2.3.4 Geometry=PoleExample Length=0.003 units=mi EarthModel=Carson
New Line.A_41 phases=4 bus1=A_41.1.2.3.4 bus2=A_42.1.2.3.4 Geometry=PoleExample Length=0.003 units=mi EarthModel=Carson
New Line.A_42 phases=4 bus1=A_42.1.2.3.4 bus2=A_43.1.2.3.4 Geometry=PoleExample Length=0.003 units=mi EarthModel=Carson
New Line.A_43 phases=4 bus1=A_43.1.2.3.4 bus2=A_44.1.2.3.4 Geometry=PoleExample Length=0.003 units=mi EarthModel=Carson
New Line.A_44 phases=4 bus1=A_44.1.2.3.4 bus2=A_45.1.2.3.4 Geometry=PoleExample Length=0.003 units=mi EarthModel=Carson
New Line.A_45 phases=4 bus1=A_45.1.2.3.4 bus2=A_46.1.2.3.4 Geometry=PoleExample Length=0.003 units=mi EarthModel=Carson
New Line.A_46 phases=4 bus1=A_46.1.2.3.4 bus2=A_47.1.2.3.4 Geometry=PoleExample Length=0.003 units=mi EarthModel=Carson
New Line.A_47 phases=4 bus1=A_47.1.2.3.4 bus2=A_48.1.2.3.4 Geometry=PoleExample Length=0.003 units=mi EarthModel=Carson
New Line.A_48 phases=4 bus1=A_48.1.2.3.4 bus2=A_49.1.2.3.4 Geometry=PoleExample Length=0.003 units=mi EarthModel=Carson
New Line.A_49 phases=4 bus1=A_49.1.2.3.4 bus2=A_50.1.2.3.4 Geometry=PoleExample Length=0.003 units=mi EarthModel=Carson
New Line.A_50 phases=4 bus1=A_50.1.2.3.4 bus2=A_51.1.2.3.4 Geometry=PoleExample Length=0.003 units=mi EarthModel=Carson
New Line.A_51 phases=4 bus1=A_51.1.2.3.4 bus2=A_52.1.2.3.4 Geometry=PoleExample Length=0.003 units=mi EarthModel=Carson
New Line.A_52 phases=4 bus1=A_52.1.2.3.4 bus2=A_53.1.2.3.4 Geometry=PoleExample Length=0.003 units=mi EarthModel=Carson
New Line.A_53 phases=4 bus1=A_53.1.2.3.4 bus2=A_54.1.2.3.4 Geometry=PoleExample Length=0.003 units=mi EarthModel=Carson
New Line.A_54 phases=4 bus1=A_54.1.2.3.4 bus2=A_55.1.2.3.4 Geometry=PoleExample Length=0.003 units=mi EarthModel=Carson
New Line.A_55 phases=4 bus1=A_55.1.2.3.4 bus2=A_56.1.2.3.4 Geometry=PoleExample Length=0.003 units=mi EarthModel=Carson
New Line.A_56 phases=4 bus1=A_56.1.2.3.4 bus2=A_57.1.2.3.4 Geometry=PoleExample Length=0.003 units=mi EarthModel=Carson
New Line.A_57 phases=4 bus1=A_57.1.2.3.4 bus2=A_58.1.2.3.4 Geometry=PoleExample Length=0.003 units=mi EarthModel=Carson
New Line.A_58 phases=4 bus1=A_58.1.2.3.4 bus2=A_59.1.2.3.4 Geometry=PoleExample Length=0.003 units=mi EarthModel=Carson
New Line.A_59 phases=4 bus1=A_59.1.2.3.4 bus2=A_60.1.2.3.4 Geometry=PoleExample Length=0.003 units=mi EarthModel=Carson
New Line.A_60 phases=4 bus1=A_60.1.2.3.4 bus2=A_61.1.2.3.4 Geometry=PoleExample Length=0.003 units=mi EarthModel=Carson
New Line.A_61 phases=4 bus1=A_61.1.2.3.4 bus2=A_62.1.2.3.4 Geometry=PoleExample Length=0.003 units=mi EarthModel=Carson
New Line.A_62 phases=4 bus1=A_62.1.2.3.4 bus2=A_63.1.2.3.4 Geometry=PoleExample Length=0.003 units=mi EarthModel=Carson
New Line.A_63 phases=4 bus1=A_63.1.2.3.4 bus2=A_64.1.2.3.4 Geometry=PoleExample Length=0.003 units=mi EarthModel=Carson
New Line.A_64 phases=4 bus1=A_64.1.2.3.4 bus2=A_65.1.2.3.4 Geometry=PoleExample Length=0.003 units=mi EarthModel=Carson
New Line.A_65 phases=4 bus1=A_65.1.2.3.4 bus2=A_66.1.2.3.4 Geometry=PoleExample Length=0.003 units=mi EarthModel=Carson
New Line.A_66 phases=4 bus1=A_66.1.2.3.4 bus2=A_67.1.2.3.4 Geometry=PoleExample Length=0.003 units=mi EarthModel=Carson
New Line.A_67 phases=4 bus1=A_67.1.2.3.4 bus2=A_68.1.2.3.4 Geometry=PoleExample Length=0.003 units=mi EarthModel=Carson
New Line.A_68 phases=4 bus1=A_68.1.2.3.4 bus2=A_69.1.2.3.4 Geometry=PoleExample Length=0.003 units=mi EarthModel=Carson
New Line.A_69 phases=4 bus1=A_69.1.2.3.4 bus2=A_70.1.2.3.4 Geometry=PoleExample Length=0.003 units=mi EarthModel=Carson
New Line.A_70 phases=4 bus1=A_70.1.2.3.4 bus2=A_71.1.2.3.4 Geometry=PoleExample Length=0.003 units=mi EarthModel=Carson
New Line.A_71 phases=4 bus1=A_71.1.2.3.4 bus2=A_72.1.2.3.4 Geometry=PoleExample Length=0.003 units=mi EarthModel=Carson
New Line.A_72 phases=4 bus1=A_72.1.2.3.4 bus2=A_73.1.2.3.4 Geometry=PoleExample Length=0.003 units=mi EarthModel=Carson
New Line.A_73 phases=4 bus1=A_73.1.2.3.4 bus2=A_74.1.2.3.4 Geometry=PoleExample Length=0.003 units=mi EarthModel=Carson
New Line.A_74 phases=4 bus1=A_74.1.2.3.4 bus2=A_75.1.2.3.4 Geometry=PoleExample Length=0.003 units=mi EarthModel=Carson
New Line.A_75 phases=4 bus1=A_75.1.2.3.4 bus2=A_76.1.2.3.4 Geometry=PoleExample Length=0.003 units=mi EarthModel=Carson
New Line.A_76 phases=4 bus1=A_76.1.2.3.4 bus2=A_77.1.2.3.4 Geometry=PoleExample Length=0.003 units=mi EarthModel=Carson
New Line.A_77 phases=4 bus1=A_77.1.2.3.4 bus2=A_78.1.2.3.4 Geometry=PoleExample Length=0.003 units=mi EarthModel=Carson
New Line.A_78 phases=4 bus1=A_78.1.2.3.4 bus2=A_79.1.2.3.4 Geometry=PoleExample Length=0.003 units=mi EarthModel=Carson
New Line.A_79 phases=4 bus1=A_79.1.2.3.4 bus2=A_80.1.2.3.4 Geometry=PoleExample Length=0.003 units=mi EarthModel=Carson
New Line.A_80 phases=4 bus1=A_80.1.2.3.4 bus2=A_81.1.2.3.4 Geometry=PoleExample Length=0.003 units=mi EarthModel=Carson
New Line.A_81 phases=4 bus1=A_81.1.2.3.4 bus2=A_82.1.2.3.4 Geometry=PoleExample Length=0.003 units=mi EarthModel=Carson
New Line.A_82 phases=4 bus1=A_82.1.2.3.4 bus2=A_83.1.2.3.4 Geometry=PoleExample Length=0.003 units=mi EarthModel=Carson
New Line.A_83 phases=4 bus1=A_83.1.2.3.4 bus2=A_84.1.2.3.4 Geometry=PoleExample Length=0.003 units=mi EarthModel=Carson
New Line.A_84 phases=4 bus1=A_84.1.2.3.4 bus2=A_85.1.2.3.4 Geometry=PoleExample Length=0.003 units=mi EarthModel=Carson
New Line.A_85 phases=4 bus1=A_85.1.2.3.4 bus2=A_86.1.2.3.4 Geometry=PoleExample Length=0.003 units=mi EarthModel=Carson
New Line.A_86 phases=4 bus1=A_86.1.2.3.4 bus2=A_87.1.2.3.4 Geometry=PoleExample Length=0.003 units=mi EarthModel=Carson
New Line.A_87 phases=4 bus1=A_87.1.2.3.4 bus2=A_88.1.2.3.4 Geometry=PoleExample Length=0.003 units=mi EarthModel=Carson
New Line.A_88 phases=4 bus1=A_88.1.2.3.4 bus2=A_89.1.2.3.4 Geometry=PoleExample Length=0.003 units=mi EarthModel=Carson
New Line.A_89 phases=4 bus1=A_89.1.2.3.4 bus2=A_90.1.2.3.4 Geometry=PoleExample Length=0.003 units=mi EarthModel=Carson
New Line.A_90 phases=4 bus1=A_90.1.2.3.4 bus2=A_91.1.2.3.4 Geometry=PoleExample Length=0.003 units=mi EarthModel=Carson
New Line.A_91 phases=4 bus1=A_91.1.2.3.4 bus2=A_92.1.2.3.4 Geometry=PoleExample Length=0.003 units=mi EarthModel=Carson
New Line.A_92 phases=4 bus1=A_92.1.2.3.4 bus2=A_93.1.2.3.4 Geometry=PoleExample Length=0.003 units=mi EarthModel=Carson
New Line.A_93 phases=4 bus1=A_93.1.2.3.4 bus2=A_94.1.2.3.4 Geometry=PoleExample Length=0.003 units=mi EarthModel=Carson
New Line.A_94 phases=4 bus1=A_94.1.2.3.4 bus2=A_95.1.2.3.4 Geometry=PoleExample Length=0.003 units=mi EarthModel=Carson
New Line.A_95 phases=4 bus1=A_95.1.2.3.4 bus2=A_96.1.2.3.4 Geometry=PoleExample Length=0.003 units=mi EarthModel=Carson
New Line.A_96 phases=4 bus1=A_96.1.2.3.4 bus2=A_97.1.2.3.4 Geometry=PoleExample Length=0.003 units=mi EarthModel=Carson
New Line.A_97 phases=4 bus1=A_97.1.2.3.4 bus2=A_98.1.2.3.4 Geometry=PoleExample Length=0.003 units=mi EarthModel=Carson
New Line.A_98 phases=4 bus1=A_98.1.2.3.4 bus2=A_99.1.2.3.4 Geometry=PoleExample Length=0.003 units=mi EarthModel=Carson
New Line.A_99 phases=4 bus1=A_99.1.2.3.4 bus2=A_100.1.2.3.4 Geometry=PoleExample Length=0.003 units=mi EarthModel=Carson
New Line.A_100 phases=4 bus1=A_100.1.2.3.4 bus2=A_101.1.2.3.4 Geometry=PoleExample Length=0.003 units=mi EarthModel=Carson
New Line.A_101 phases=4 bus1=A_101.1.2.3.4 bus2=A_102.1.2.3.4 Geometry=PoleExample Length=0.003 units=mi EarthModel=Carson
New Line.A_102 phases=4 bus1=A_102.1.2.3.4 bus2=A_103.1.2.3.4 Geometry=PoleExample Length=0.003 units=mi EarthModel=Carson
New Line.A_103 phases=4 bus1=A_103.1.2.3.4 bus2=A_104.1.2.3.4 Geometry=PoleExample Length=0.003 units=mi EarthModel=Carson
New Line.A_104 phases=4 bus1=A_104.1.2.3.4 bus2=A_105.1.2.3.4 Geometry=PoleExample Length=0.003 units=mi EarthModel=Carson
New Line.A_105 phases=4 bus1=A_105.1.2.3.4 bus2=A_106.1.2.3.4 Geometry=PoleExample Length=0.003 units=mi EarthModel=Carson
New Line.A_106 phases=4 bus1=A_106.1.2.3.4 bus2=A_107.1.2.3.4 Geometry=PoleExample Length=0.003 units=mi EarthModel=Carson
New Line.A_107 phases=4 bus1=A_107.1.2.3.4 bus2=A_108.1.2.3.4 Geometry=PoleExample Length=0.003 units=mi EarthModel=Carson
New Line.A_108 phases=4 bus1=A_108.1.2.3.4 bus2=A_109.1.2.3.4 Geometry=PoleExample Length=0.003 units=mi EarthModel=Carson
New Line.A_109 phases=4 bus1=A_109.1.2.3.4 bus2=A_110.1.2.3.4 Geometry=PoleExample Length=0.003 units=mi EarthModel=Carson
New Line.A_110 phases=4 bus1=A_110.1.2.3.4 bus2=A_111.1.2.3.4 Geometry=PoleExample Length=0.003 units=mi EarthModel=Carson
New Line.A_111 phases=4 bus1=A_111.1.2.3.4 bus2=A_112.1.2.3.4 Geometry=PoleExample Length=0.003 units=mi EarthModel=Carson
New Line.A_112 phases=4 bus1=A_112.1.2.3.4 bus2=A_113.1.2.3.4 Geometry=PoleExample Length=0.003 units=mi EarthModel=Carson
New Line.A_113 phases=4 bus1=A_113.1.2.3.4 bus2=A_114.1.2.3.4 Geometry=PoleExample Length=0.003 units=mi EarthModel=Carson
New Line.A_114 phases=4 bus1=A_114.1.2.3.4 bus2=A_115.1.2.3.4 Geometry=PoleExample Length=0.003 units=mi EarthModel=Carson
New Line.A_115 phases=4 bus1=A_115.1.2.3.4 bus2=A_116.1.2.3.4 Geometry=PoleExample Length=0.003 units=mi EarthModel=Carson
New Line.A_116 phases=4 bus1=A_116.1.2.3.4 bus2=A_117.1.2.3.4 Geometry=PoleExample Length=0.003 units=mi EarthModel=Carson
New Line.A_117 phases=4 bus1=A_117.1.2.3.4 bus2=A_118.1.2.3.4 Geometry=PoleExample Length=0.003 units=mi EarthModel=Carson
New Line.A_118 phases=4 bus1=A_118.1.2.3.4 bus2=A_119.1.2.3.4 Geometry=PoleExample Length=0.003 units=mi EarthModel=Carson
New Line.A_119 phases=4 bus1=A_119.1.2.3.4 bus2=A_120.1.2.3.4 Geometry=PoleExample Length=0.003 units=mi EarthModel=Carson
New Line.A_120 phases=4 bus1=A_120.1.2.3.4 bus2=A_121.1.2.3.4 Geometry=PoleExample Length=0.003 units=mi EarthModel=Carson
New Line.A_121 phases=4 bus1=A_121.1.2.3.4 bus2=A_122.1.2.3.4 Geometry=PoleExample Length=0.003 units=mi EarthModel=Carson
New Line.A_122 phases=4 bus1=A_122.1.2.3.4 bus2=A_123.1.2.3.4 Geometry=PoleExample Length=0.003 units=mi EarthModel=Carson
New Line.A_123 phases=4 bus1=A_123.1.2.3.4 bus2=A_124.1.2.3.4 Geometry=PoleExample Length=0.003 units=mi EarthModel=Carson
New Line.A_124 phases=4 bus1=A_124.1.2.3.4 bus2=A_125.1.2.3.4 Geometry=PoleExample Length=0.003 units=mi EarthModel=Carson
New Line.A_125 phases=4 bus1=A_125.1.2.3.4 bus2=A_126.1.2.3.4 Geometry=PoleExample Length=0.003 units=mi EarthModel=Carson
New Line.A_126 phases=4 bus1=A_126.1.2.3.4 bus2=A_127.1.2.3.4 Geometry=PoleExample Length=0.003 units=mi EarthModel=Carson
New Line.A_127 phases=4 bus1=A_127.1.2.3.4 bus2=A_128.1.2.3.4 Geometry=PoleExample Length=0.003 units=mi EarthModel=Carson
New Line.A_128 phases=4 bus1=A_128.1.2.3.4 bus2=A_129.1.2.3.4 Geometry=PoleExample Length=0.003 units=mi EarthModel=Carson
New Line.A_129 phases=4 bus1=A_129.1.2.3.4 bus2=A_130.1.2.3.4 Geometry=PoleExample Length=0.003 units=mi EarthModel=Carson
New Line.A_130 phases=4 bus1=A_130.1.2.3.4 bus2=A_131.1.2.3.4 Geometry=PoleExample Length=0.003 units=mi EarthModel=Carson
New Line.A_131 phases=4 bus1=A_131.1.2.3.4 bus2=A_132.1.2.3.4 Geometry=PoleExample Length=0.003 units=mi EarthModel=Carson
New Line.A_132 phases=4 bus1=A_132.1.2.3.4 bus2=A_133.1.2.3.4 Geometry=PoleExample Length=0.003 units=mi EarthModel=Carson
New Line.A_133 phases=4 bus1=A_133.1.2.3.4 bus2=A_134.1.2.3.4 Geometry=PoleExample Length=0.003 units=mi EarthModel=Carson
New Line.A_134 phases=4 bus1=A_134.1.2.3.4 bus2=A_135.1.2.3.4 Geometry=PoleExample Length=0.003 units=mi EarthModel=Carson
New Line.A_135 phases=4 bus1=A_135.1.2.3.4 bus2=A_136.1.2.3.4 Geometry=PoleExample Length=0.003 units=mi EarthModel=Carson
New Line.A_136 phases=4 bus1=A_136.1.2.3.4 bus2=A_137.1.2.3.4 Geometry=PoleExample Length=0.003 units=mi EarthModel=Carson
New Line.A_137 phases=4 bus1=A_137.1.2.3.4 bus2=A_138.1.2.3.4 Geometry=PoleExample Length=0.003 units=mi EarthModel=Carson
New Line.A_138 phases=4 bus1=A_138.1.2.3.4 bus2=A_139.1.2.3.4 Geometry=PoleExample Length=0.003 units=mi EarthModel=Carson
New Line.A_139 phases=4 bus1=A_139.1.2.3.4 bus2=A_140.1.2.3.4 Geometry=PoleExample Length=0.003 units=mi EarthModel=Carson
New Line.A_140 phases=4 bus1=A_140.1.2.3.4 bus2=A_141.1.2.3.4 Geometry=PoleExample Length=0.003 units=mi EarthModel=Carson
New Line.A_141 phases=4 bus1=A_141.1.2.3.4 bus2=A_142.1.2.3.4 Geometry=PoleExample Length=0.003 units=mi EarthModel=Carson
New Line.A_142 phases=4 bus1=A_142.1.2.3.4 bus2=A_143.1.2.3.4 Geometry=PoleExample Length=0.003 units=mi EarthModel=Carson
New Line.A_143 phases=4 bus1=A_143.1.2.3.4 bus2=A_144.1.2.3.4 Geometry=PoleExample Length=0.003 units=mi EarthModel=Carson
New Line.A_144 phases=4 bus1=A_144.1.2.3.4 bus2=A_145.1.2.3.4 Geometry=PoleExample Length=0.003 units=mi EarthModel=Carson
New Line.A_145 phases=4 bus1=A_145.1.2.3.4 bus2=A_146.1.2.3.4 Geometry=PoleExample Length=0.003 units=mi EarthModel=Carson
New Line.A_146 phases=4 bus1=A_146.1.2.3.4 bus2=A_147.1.2.3.4 Geometry=PoleExample Length=0.003 units=mi EarthModel=Carson
New Line.A_147 phases=4 bus1=A_147.1.2.3.4 bus2=A_148.1.2.3.4 Geometry=PoleExample Length=0.003 units=mi EarthModel=Carson
New Line.A_148 phases=4 bus1=A_148.1.2.3.4 bus2=A_149.1.2.3.4 Geometry=PoleExample Length=0.003 units=mi EarthModel=Carson
New Line.A_149 phases=4 bus1=A_149.1.2.3.4 bus2=A_150.1.2.3.4 Geometry=PoleExample Length=0.003 units=mi EarthModel=Carson
New Line.A_150 phases=4 bus1=A_150.1.2.3.4 bus2=A_151.1.2.3.4 Geometry=PoleExample Length=0.003 units=mi EarthModel=Carson
New Line.A_151 phases=4 bus1=A_151.1.2.3.4 bus2=A_152.1.2.3.4 Geometry=PoleExample Length=0.003 units=mi EarthModel=Carson
New Line.A_152 phases=4 bus1=A_152.1.2.3.4 bus2=A_153.1.2.3.4 Geometry=PoleExample Length=0.003 units=mi EarthModel=Carson
New Line.A_153 phases=4 bus1=A_153.1.2.3.4 bus2=A_154.1.2.3.4 Geometry=PoleExample Length=0.003 units=mi EarthModel=Carson
New Line.A_154 phases=4 bus1=A_154.1.2.3.4 bus2=A_155.1.2.3.4 Geometry=PoleExample Length=0.003 units=mi EarthModel=Carson
New Line.A_155 phases=4 bus1=A_155.1.2.3.4 bus2=A_156.1.2.3.4 Geometry=PoleExample Length=0.003 units=mi EarthModel=Carson
New Line.A_156 phases=4 bus1=A_156.1.2.3.4 bus2=A_157.1.2.3.4 Geometry=PoleExample Length=0.003 units=mi EarthModel=Carson
New Line.A_157 phases=4 bus1=A_157.1.2.3.4 bus2=A_158.1.2.3.4 Geometry=PoleExample Length=0.003 units=mi EarthModel=Carson
New Line.A_158 phases=4 bus1=A_158.1.2.3.4 bus2=A_159.1.2.3.4 Geometry=PoleExample Length=0.003 units=mi EarthModel=Carson
New Line.A_159 phases=4 bus1=A_159.1.2.3.4 bus2=A_160.1.2.3.4 Geometry=PoleExample Length=0.003 units=mi EarthModel=Carson
New Line.A_160 phases=4 bus1=A_160.1.2.3.4 bus2=A_161.1.2.3.4 Geometry=PoleExample Length=0.003 units=mi EarthModel=Carson
New Line.A_161 phases=4 bus1=A_161.1.2.3.4 bus2=A_162.1.2.3.4 Geometry=PoleExample Length=0.003 units=mi EarthModel=Carson
New Line.A_162 phases=4 bus1=A_162.1.2.3.4 bus2=A_163.1.2.3.4 Geometry=PoleExample Length=0.003 units=mi EarthModel=Carson
New Line.A_163 phases=4 bus1=A_163.1.2.3.4 bus2=A_164.1.2.3.4 Geometry=PoleExample Length=0.003 units=mi EarthModel=Carson
New Line.A_164 phases=4 bus1=A_164.1.2.3.4 bus2=A_165.1.2.3.4 Geometry=PoleExample Length=0.003 units=mi EarthModel=Carson
New Line.A_165 phases=4 bus1=A_165.1.2.3.4 bus2=A_166.1.2.3.4 Geometry=PoleExample Length=0.003 units=mi EarthModel=Carson
New Line.A_166 phases=4 bus1=A_166.1.2.3.4 bus2=A_167.1.2.3.4 Geometry=PoleExample Length=0.003 units=mi EarthModel=Carson
New Line.A_167 phases=4 bus1=A_167.1.2.3.4 bus2=A_168.1.2.3.4 Geometry=PoleExample Length=0.003 units=mi EarthModel=Carson
New Line.A_168 phases=4 bus1=A_168.1.2.3.4 bus2=A_169.1.2.3.4 Geometry=PoleExample Length=0.003 units=mi EarthModel=Carson
New Line.A_169 phases=4 bus1=A_169.1.2.3.4 bus2=A_170.1.2.3.4 Geometry=PoleExample Length=0.003 units=mi EarthModel=Carson
New Line.A_170 phases=4 bus1=A_170.1.2.3.4 bus2=A_171.1.2.3.4 Geometry=PoleExample Length=0.003 units=mi EarthModel=Carson
New Line.A_171 phases=4 bus1=A_171.1.2.3.4 bus2=A_172.1.2.3.4 Geometry=PoleExample Length=0.003 units=mi EarthModel=Carson
New Line.A_172 phases=4 bus1=A_172.1.2.3.4 bus2=A_173.1.2.3.4 Geometry=PoleExample Length=0.003 units=mi EarthModel=Carson
New Line.A_173 phases=4 bus1=A_173.1.2.3.4 bus2=A_174.1.2.3.4 Geometry=PoleExample Length=0.003 units=mi EarthModel=Carson
New Line.A_174 phases=4 bus1=A_174.1.2.3.4 bus2=A_175.1.2.3.4 Geometry=PoleExample Length=0.003 units=mi EarthModel=Carson
New Line.A_175 phases=4 bus1=A_175.1.2.3.4 bus2=A_176.1.2.3.4 Geometry=PoleExample Length=0.003 units=mi EarthModel=Carson
New Line.A_176 phases=4 bus1=A_176.1.2.3.4 bus2=A_177.1.2.3.4 Geometry=PoleExample Length=0.003 units=mi EarthModel=Carson
New Line.A_177 phases=4 bus1=A_177.1.2.3.4 bus2=A_178.1.2.3.4 Geometry=PoleExample Length=0.003 units=mi EarthModel=Carson
New Line.A_178 phases=4 bus1=A_178.1.2.3.4 bus2=A_179.1.2.3.4 Geometry=PoleExample Length=0.003 units=mi EarthModel=Carson
New Line.A_179 phases=4 bus1=A_179.1.2.3.4 bus2=A_180.1.2.3.4 Geometry=PoleExample Length=0.003 units=mi EarthModel=Carson
New Line.A_180 phases=4 bus1=A_180.1.2.3.4 bus2=A_181.1.2.3.4 Geometry=PoleExample Length=0.003 units=mi EarthModel=Carson
New Line.A_181 phases=4 bus1=A_181.1.2.3.4 bus2=A_182.1.2.3.4 Geometry=PoleExample Length=0.003 units=mi EarthModel=Carson
New Line.A_182 phases=4 bus1=A_182.1.2.3.4 bus2=A_183.1.2.3.4 Geometry=PoleExample Length=0.003 units=mi EarthModel=Carson
New Line.A_183 phases=4 bus1=A_183.1.2.3.4 bus2=A_184.1.2.3.4 Geometry=PoleExample Length=0.003 units=mi EarthModel=Carson
New Line.A_184 phases=4 bus1=A_184.1.2.3.4 bus2=A_185.1.2.3.4 Geometry=PoleExample Length=0.003 units=mi EarthModel=Carson
New Line.A_185 phases=4 bus1=A_185.1.2.3.4 bus2=A_186.1.2.3.4 Geometry=PoleExample Length=0.003 units=mi EarthModel=Carson
New Line.A_186 phases=4 bus1=A_186.1.2.3.4 bus2=A_187.1.2.3.4 Geometry=PoleExample Length=0.003 units=mi EarthModel=Carson
New Line.A_187 phases=4 bus1=A_187.1.2.3.4 bus2=A_188.1.2.3.4 Geometry=PoleExample Length=0.003 units=mi EarthModel=Carson
New Line.A_188 phases=4 bus1=A_188.1.2.3.4 bus2=A_189.1.2.3.4 Geometry=PoleExample Length=0.003 units=mi EarthModel=Carson
New Line.A_189 phases=4 bus1=A_189.1.2.3.4 bus2=A_190.1.2.3.4 Geometry=PoleExample Length=0.003 units=mi EarthModel=Carson
New Line.A_190 phases=4 bus1=A_190.1.2.3.4 bus2=A_191.1.2.3.4 Geometry=PoleExample Length=0.003 units=mi EarthModel=Carson
New Line.A_191 phases=4 bus1=A_191.1.2.3.4 bus2=A_192.1.2.3.4 Geometry=PoleExample Length=0.003 units=mi EarthModel=Carson
New Line.A_192 phases=4 bus1=A_192.1.2.3.4 bus2=A_193.1.2.3.4 Geometry=PoleExample Length=0.003 units=mi EarthModel=Carson
New Line.A_193 phases=4 bus1=A_193.1.2.3.4 bus2=A_194.1.2.3.4 Geometry=PoleExample Length=0.003 units=mi EarthModel=Carson
New Line.A_194 phases=4 bus1=A_194.1.2.3.4 bus2=A_195.1.2.3.4 Geometry=PoleExample Length=0.003 units=mi EarthModel=Carson
New Line.A_195 phases=4 bus1=A_195.1.2.3.4 bus2=A_196.1.2.3.4 Geometry=PoleExample Length=0.003 units=mi EarthModel=Carson
New Line.A_196 phases=4 bus1=A_196.1.2.3.4 bus2=A_197.1.2.3.4 Geometry=PoleExample Length=0.003 units=mi EarthModel=Carson
New Line.A_197 phases=4 bus1=A_197.1.2.3.4 bus2=A_198.1.2.3.4 Geometry=PoleExample Length=0.003 units=mi EarthModel=Carson
New Line.A_198 phases=4 bus1=A_198.1.2.3.4 bus2=A_199.1.2.3.4 Geometry=PoleExample Length=0.003 units=mi EarthModel=Carson
New Line.A_199 phases=4 bus1=A_199.1.2.3.4 bus2=A_200.1.2.3.4 Geometry=PoleExample Length=0.003 units=mi EarthModel=Carson
New Line.A_200 phases=4 bus1=A_200.1.2.3.4 bus2=A_201.1.2.3.4 Geometry=PoleExample Length=0.003 units=mi EarthModel=Carson
New Line.A_201 phases=4 bus1=A_201.1.2.3.4 bus2=A_202.1.2.3.4 Geometry=PoleExample Length=0.003 units=mi EarthModel=Carson
New Line.A_202 phases=4 bus1=A_202.1.2.3.4 bus2=A_203.1.2.3.4 Geometry=PoleExample Length=0.003 units=mi EarthModel=Carson
New Line.A_203 phases=4 bus1=A_203.1.2.3.4 bus2=A_204.1.2.3.4 Geometry=PoleExample Length=0.003 units=mi EarthModel=Carson
New Line.A_204 phases=4 bus1=A_204.1.2.3.4 bus2=A_205.1.2.3.4 Geometry=PoleExample Length=0.003 units=mi EarthModel=Carson
New Line.A_205 phases=4 bus1=A_205.1.2.3.4 bus2=A_206.1.2.3.4 Geometry=PoleExample Length=0.003 units=mi EarthModel=Carson
New Line.A_206 phases=4 bus1=A_206.1.2.3.4 bus2=A_207.1.2.3.4 Geometry=PoleExample Length=0.003 units=mi EarthModel=Carson
New Line.A_207 phases=4 bus1=A_207.1.2.3.4 bus2=A_208.1.2.3.4 Geometry=PoleExample Length=0.003 units=mi EarthModel=Carson
New Line.A_208 phases=4 bus1=A_208.1.2.3.4 bus2=A_209.1.2.3.4 Geometry=PoleExample Length=0.003 units=mi EarthModel=Carson
New Line.A_209 phases=4 bus1=A_209.1.2.3.4 bus2=A_210.1.2.3.4 Geometry=PoleExample Length=0.003 units=mi EarthModel=Carson
New Line.A_210 phases=4 bus1=A_210.1.2.3.4 bus2=A_211.1.2.3.4 Geometry=PoleExample Length=0.003 units=mi EarthModel=Carson
New Line.A_211 phases=4 bus1=A_211.1.2.3.4 bus2=A_212.1.2.3.4 Geometry=PoleExample Length=0.003 units=mi EarthModel=Carson
New Line.A_212 phases=4 bus1=A_212.1.2.3.4 bus2=A_213.1.2.3.4 Geometry=PoleExample Length=0.003 units=mi EarthModel=Carson
New Line.A_213 phases=4 bus1=A_213.1.2.3.4 bus2=A_214.1.2.3.4 Geometry=PoleExample Length=0.003 units=mi EarthModel=Carson
New Line.A_214 phases=4 bus1=A_214.1.2.3.4 bus2=A_215.1.2.3.4 Geometry=PoleExample Length=0.003 units=mi EarthModel=Carson
New Line.A_215 phases=4 bus1=A_215.1.2.3.4 bus2=A_216.1.2.3.4 Geometry=PoleExample Length=0.003 units=mi EarthModel=Carson
New Line.A_216 phases=4 bus1=A_216.1.2.3.4 bus2=A_217.1.2.3.4 Geometry=PoleExample Length=0.003 units=mi EarthModel=Carson
New Line.A_217 phases=4 bus1=A_217.1.2.3.4 bus2=A_218.1.2.3.4 Geometry=PoleExample Length=0.003 units=mi EarthModel=Carson
New Line.A_218 phases=4 bus1=A_218.1.2.3.4 bus2=A_219.1.2.3.4 Geometry=PoleExample Length=0.003 units=mi EarthModel=Carson
New Line.A_219 phases=4 bus1=A_219.1.2.3.4 bus2=A_220.1.2.3.4 Geometry=PoleExample Length=0.003 units=mi EarthModel=Carson
New Line.A_220 phases=4 bus1=A_220.1.2.3.4 bus2=A_221.1.2.3.4 Geometry=PoleExample Length=0.003 units=mi EarthModel=Carson
New Line.A_221 phases=4 bus1=A_221.1.2.3.4 bus2=A_222.1.2.3.4 Geometry=PoleExample Length=0.003 units=mi EarthModel=Carson
New Line.A_222 phases=4 bus1=A_222.1.2.3.4 bus2=A_223.1.2.3.4 Geometry=PoleExample Length=0.003 units=mi EarthModel=Carson
New Line.A_223 phases=4 bus1=A_223.1.2.3.4 bus2=A_224.1.2.3.4 Geometry=PoleExample Length=0.003 units=mi EarthModel=Carson
New Line.A_224 phases=4 bus1=A_224.1.2.3.4 bus2=A_225.1.2.3.4 Geometry=PoleExample Length=0.003 units=mi EarthModel=Carson
New Line.A_225 phases=4 bus1=A_225.1.2.3.4 bus2=A_226.1.2.3.4 Geometry=PoleExample Length=0.003 units=mi EarthModel=Carson
New Line.A_226 phases=4 bus1=A_226.1.2.3.4 bus2=A_227.1.2.3.4 Geometry=PoleExample Length=0.003 units=mi EarthModel=Carson
New Line.A_227 phases=4 bus1=A_227.1.2.3.4 bus2=A_228.1.2.3.4 Geometry=PoleExample Length=0.003 units=mi EarthModel=Carson
New Line.A_228 phases=4 bus1=A_228.1.2.3.4 bus2=A_229.1.2.3.4 Geometry=PoleExample Length=0.003 units=mi EarthModel=Carson
New Line.A_229 phases=4 bus1=A_229.1.2.3.4 bus2=A_230.1.2.3.4 Geometry=PoleExample Length=0.003 units=mi EarthModel=Carson
New Line.A_230 phases=4 bus1=A_230.1.2.3.4 bus2=A_231.1.2.3.4 Geometry=PoleExample Length=0.003 units=mi EarthModel=Carson
New Line.A_231 phases=4 bus1=A_231.1.2.3.4 bus2=A_232.1.2.3.4 Geometry=PoleExample Length=0.003 units=mi EarthModel=Carson
New Line.A_232 phases=4 bus1=A_232.1.2.3.4 bus2=A_233.1.2.3.4 Geometry=PoleExample Length=0.003 units=mi EarthModel=Carson
New Line.A_233 phases=4 bus1=A_233.1.2.3.4 bus2=A_234.1.2.3.4 Geometry=PoleExample Length=0.003 units=mi EarthModel=Carson
New Line.A_234 phases=4 bus1=A_234.1.2.3.4 bus2=A_235.1.2.3.4 Geometry=PoleExample Length=0.003 units=mi EarthModel=Carson
New Line.A_235 phases=4 bus1=A_235.1.2.3.4 bus2=A_236.1.2.3.4 Geometry=PoleExample Length=0.003 units=mi EarthModel=Carson
New Line.A_236 phases=4 bus1=A_236.1.2.3.4 bus2=A_237.1.2.3.4 Geometry=PoleExample Length=0.003 units=mi EarthModel=Carson
New Line.A_237 phases=4 bus1=A_237.1.2.3.4 bus2=A_238.1.2.3.4 Geometry=PoleExample Length=0.003 units=mi EarthModel=Carson
New Line.A_238 phases=4 bus1=A_238.1.2.3.4 bus2=A_239.1.2.3.4 Geometry=PoleExample Length=0.003 units=mi EarthModel=Carson
New Line.A_239 phases=4 bus1=A_239.1.2.3.4 bus2=A_240.1.2.3.4 Geometry=PoleExample Length=0.003 units=mi EarthModel=Carson