ClearAll

redirect modelo/fonte_ideal.dss
redirect modelo/trafo_mt_bt_ideal_sem_r.dss
redirect modelo/arranjo.dss
redirect modelo/carga_isource.dss

New Line.L phases=2 bus1=A.1.0 bus2=B.1.4 length=0.03 geometry=SI1_35mm2 earthmodel=Carson units=km 

redirect modelo/medidor.dss