//-------------------------------------------------------------------------------------------------------------------------------------------------------------------------------------------------------//
// Trechos MT - SMT
//-------------------------------------------------------------------------------------------------------------------------------------------------------------------------------------------------------//

// Definição do trecho MT - 1_2
New Line.SMT_Trecho1 bus1=barra1B.1.2.3 bus2=barra2.1.2.3 length=1 units=km r1=0.195 x1=0.384432 r0=0.372653 x0=1.84707 !geometry=N1 length=1 units=km earthmodel=Carson

// Definição do trecho MT - 2_3
New Line.SMT_Trecho2 bus1=barra2.1.2.3 bus2=barra3.1.2.3 length=1 units=km r1=0.195 x1=0.384432 r0=0.372653 x0=1.84707 !geometry=N1 length=1 units=km earthmodel=Carson
