//-------------------------------------------------------------------------------------------------------------------------------------------------------------------------------------------------------//
// Transformador
//-------------------------------------------------------------------------------------------------------------------------------------------------------------------------------------------------------//

New Transformer.Trafo1 phases=3 windings=2
~ buses=["barra2.1.2.3" "C1_A.1.2.3.4"]
~ conns=[delta wye]
~ kvs=[13.8 0.22]
~ taps=[1 1]
~ kvas=[75 75]
~ %noloadloss=0.34
~ %loadloss=1.34
~ xhl=3.23 ! XHL = sqrt ( 0.035^2 - (%loadloss / 100)^2 ) . 100%

New Reactor.Reator1 bus1=C1_A.4 phases=1 R=15 x=0 basefreq=60
!New Line.Neutro1 phases=1 bus1=barra2.4 bus2=C1_A.4 r1=0.00001 r0=0.00001 x1=0 x0=0 c1=0 c0=0 length=0.001 switch=T

