ClearAll

redirect modelo/fonte_ideal.dss
redirect modelo/trafo_mt_bt_ideal.dss
redirect modelo/arranjo.dss

New Line.L bus1=A.1.2.3.4 bus2=B.1.2.3.4 geometry=S1_4AWG earthmodel=Carson length=1 units=km 

New Isource.ia amps=-140 phases=1 bus1=B.1 bus2=B.4 angle=-30
New Isource.ib amps=-140 phases=1 bus1=B.2 bus2=B.4 angle=-150
New Isource.ic amps=-140 phases=1 bus1=B.3 bus2=B.4 angle=90

redirect modelo/medidor.dss