New loadshape.138236b0 npts=24 mult=(1 1 1 1 1 1 1 1 1 1 1 1 1 1 1 1 1 1 1 1 1 1 1 1) memorymapping=yes
New loadshape.138237b0 npts=24 mult=(1 1 1 1 1 1 1 1 1 1 1 1 1 1 1 1 1 1 1 1 1 1 1 1) memorymapping=yes
New loadshape.138258c0 npts=24 mult=(1 1 1 1 1 1 1 1 1 1 1 1 1 1 1 1 1 1 1 1 1 1 1 1) memorymapping=yes
New loadshape.138259c0 npts=24 mult=(1 1 1 1 1 1 1 1 1 1 1 1 1 1 1 1 1 1 1 1 1 1 1 1) memorymapping=yes
New loadshape.138260a0 npts=24 mult=(1 1 1 1 1 1 1 1 1 1 1 1 1 1 1 1 1 1 1 1 1 1 1 1) memorymapping=yes
New loadshape.138262a0 npts=24 mult=(1 1 1 1 1 1 1 1 1 1 1 1 1 1 1 1 1 1 1 1 1 1 1 1) memorymapping=yes
New loadshape.138264b0 npts=24 mult=(1 1 1 1 1 1 1 1 1 1 1 1 1 1 1 1 1 1 1 1 1 1 1 1) memorymapping=yes
New loadshape.138265a0 npts=24 mult=(1 1 1 1 1 1 1 1 1 1 1 1 1 1 1 1 1 1 1 1 1 1 1 1) memorymapping=yes
New loadshape.138294b0 npts=24 mult=(1 1 1 1 1 1 1 1 1 1 1 1 1 1 1 1 1 1 1 1 1 1 1 1) memorymapping=yes
New loadshape.138313a0 npts=24 mult=(1 1 1 1 1 1 1 1 1 1 1 1 1 1 1 1 1 1 1 1 1 1 1 1) memorymapping=yes
New loadshape.138342c0 npts=24 mult=(1 1 1 1 1 1 1 1 1 1 1 1 1 1 1 1 1 1 1 1 1 1 1 1) memorymapping=yes
New loadshape.138343c0 npts=24 mult=(1 1 1 1 1 1 1 1 1 1 1 1 1 1 1 1 1 1 1 1 1 1 1 1) memorymapping=yes
New loadshape.138346c0 npts=24 mult=(1 1 1 1 1 1 1 1 1 1 1 1 1 1 1 1 1 1 1 1 1 1 1 1) memorymapping=yes
New loadshape.138371c0 npts=24 mult=(1 1 1 1 1 1 1 1 1 1 1 1 1 1 1 1 1 1 1 1 1 1 1 1) memorymapping=yes
New loadshape.138372c0 npts=24 mult=(1 1 1 1 1 1 1 1 1 1 1 1 1 1 1 1 1 1 1 1 1 1 1 1) memorymapping=yes
New loadshape.138373c0 npts=24 mult=(1 1 1 1 1 1 1 1 1 1 1 1 1 1 1 1 1 1 1 1 1 1 1 1) memorymapping=yes
New loadshape.138374c0 npts=24 mult=(1 1 1 1 1 1 1 1 1 1 1 1 1 1 1 1 1 1 1 1 1 1 1 1) memorymapping=yes
New loadshape.138379c0 npts=24 mult=(1 1 1 1 1 1 1 1 1 1 1 1 1 1 1 1 1 1 1 1 1 1 1 1) memorymapping=yes
New loadshape.138380c0 npts=24 mult=(1 1 1 1 1 1 1 1 1 1 1 1 1 1 1 1 1 1 1 1 1 1 1 1) memorymapping=yes
New loadshape.138404c0 npts=24 mult=(1 1 1 1 1 1 1 1 1 1 1 1 1 1 1 1 1 1 1 1 1 1 1 1) memorymapping=yes
New loadshape.138405c0 npts=24 mult=(1 1 1 1 1 1 1 1 1 1 1 1 1 1 1 1 1 1 1 1 1 1 1 1) memorymapping=yes
New loadshape.138412c0 npts=24 mult=(1 1 1 1 1 1 1 1 1 1 1 1 1 1 1 1 1 1 1 1 1 1 1 1) memorymapping=yes
New loadshape.138413c0 npts=24 mult=(1 1 1 1 1 1 1 1 1 1 1 1 1 1 1 1 1 1 1 1 1 1 1 1) memorymapping=yes
New loadshape.138416c0 npts=24 mult=(1 1 1 1 1 1 1 1 1 1 1 1 1 1 1 1 1 1 1 1 1 1 1 1) memorymapping=yes
New loadshape.138464c0 npts=24 mult=(1 1 1 1 1 1 1 1 1 1 1 1 1 1 1 1 1 1 1 1 1 1 1 1) memorymapping=yes
New loadshape.138465c0 npts=24 mult=(1 1 1 1 1 1 1 1 1 1 1 1 1 1 1 1 1 1 1 1 1 1 1 1) memorymapping=yes
New loadshape.138466c0 npts=24 mult=(1 1 1 1 1 1 1 1 1 1 1 1 1 1 1 1 1 1 1 1 1 1 1 1) memorymapping=yes
New loadshape.138469c0 npts=24 mult=(1 1 1 1 1 1 1 1 1 1 1 1 1 1 1 1 1 1 1 1 1 1 1 1) memorymapping=yes
New loadshape.138470c0 npts=24 mult=(1 1 1 1 1 1 1 1 1 1 1 1 1 1 1 1 1 1 1 1 1 1 1 1) memorymapping=yes
New loadshape.138472c0 npts=24 mult=(1 1 1 1 1 1 1 1 1 1 1 1 1 1 1 1 1 1 1 1 1 1 1 1) memorymapping=yes
New loadshape.138560a0 npts=24 mult=(1 1 1 1 1 1 1 1 1 1 1 1 1 1 1 1 1 1 1 1 1 1 1 1) memorymapping=yes
New loadshape.138561a0 npts=24 mult=(1 1 1 1 1 1 1 1 1 1 1 1 1 1 1 1 1 1 1 1 1 1 1 1) memorymapping=yes
New loadshape.138562a0 npts=24 mult=(1 1 1 1 1 1 1 1 1 1 1 1 1 1 1 1 1 1 1 1 1 1 1 1) memorymapping=yes
New loadshape.138563a0 npts=24 mult=(1 1 1 1 1 1 1 1 1 1 1 1 1 1 1 1 1 1 1 1 1 1 1 1) memorymapping=yes
New loadshape.138564a0 npts=24 mult=(1 1 1 1 1 1 1 1 1 1 1 1 1 1 1 1 1 1 1 1 1 1 1 1) memorymapping=yes
New loadshape.138565a0 npts=24 mult=(1 1 1 1 1 1 1 1 1 1 1 1 1 1 1 1 1 1 1 1 1 1 1 1) memorymapping=yes
New loadshape.138566a0 npts=24 mult=(1 1 1 1 1 1 1 1 1 1 1 1 1 1 1 1 1 1 1 1 1 1 1 1) memorymapping=yes
New loadshape.138567a0 npts=24 mult=(1 1 1 1 1 1 1 1 1 1 1 1 1 1 1 1 1 1 1 1 1 1 1 1) memorymapping=yes
New loadshape.138569a0 npts=24 mult=(1 1 1 1 1 1 1 1 1 1 1 1 1 1 1 1 1 1 1 1 1 1 1 1) memorymapping=yes
New loadshape.138570a0 npts=24 mult=(1 1 1 1 1 1 1 1 1 1 1 1 1 1 1 1 1 1 1 1 1 1 1 1) memorymapping=yes
New loadshape.138571a0 npts=24 mult=(1 1 1 1 1 1 1 1 1 1 1 1 1 1 1 1 1 1 1 1 1 1 1 1) memorymapping=yes
New loadshape.138573a0 npts=24 mult=(1 1 1 1 1 1 1 1 1 1 1 1 1 1 1 1 1 1 1 1 1 1 1 1) memorymapping=yes
New loadshape.138574a0 npts=24 mult=(1 1 1 1 1 1 1 1 1 1 1 1 1 1 1 1 1 1 1 1 1 1 1 1) memorymapping=yes
New loadshape.138581a0 npts=24 mult=(1 1 1 1 1 1 1 1 1 1 1 1 1 1 1 1 1 1 1 1 1 1 1 1) memorymapping=yes
New loadshape.138585c0 npts=24 mult=(1 1 1 1 1 1 1 1 1 1 1 1 1 1 1 1 1 1 1 1 1 1 1 1) memorymapping=yes
New loadshape.138586c0 npts=24 mult=(1 1 1 1 1 1 1 1 1 1 1 1 1 1 1 1 1 1 1 1 1 1 1 1) memorymapping=yes
New loadshape.138641c0 npts=24 mult=(1 1 1 1 1 1 1 1 1 1 1 1 1 1 1 1 1 1 1 1 1 1 1 1) memorymapping=yes
New loadshape.138642a0 npts=24 mult=(1 1 1 1 1 1 1 1 1 1 1 1 1 1 1 1 1 1 1 1 1 1 1 1) memorymapping=yes
New loadshape.138644a0 npts=24 mult=(1 1 1 1 1 1 1 1 1 1 1 1 1 1 1 1 1 1 1 1 1 1 1 1) memorymapping=yes
New loadshape.138645b0 npts=24 mult=(1 1 1 1 1 1 1 1 1 1 1 1 1 1 1 1 1 1 1 1 1 1 1 1) memorymapping=yes
New loadshape.138646a0 npts=24 mult=(1 1 1 1 1 1 1 1 1 1 1 1 1 1 1 1 1 1 1 1 1 1 1 1) memorymapping=yes
New loadshape.138647c0 npts=24 mult=(1 1 1 1 1 1 1 1 1 1 1 1 1 1 1 1 1 1 1 1 1 1 1 1) memorymapping=yes
New loadshape.138649a0 npts=24 mult=(1 1 1 1 1 1 1 1 1 1 1 1 1 1 1 1 1 1 1 1 1 1 1 1) memorymapping=yes
New loadshape.138650c0 npts=24 mult=(1 1 1 1 1 1 1 1 1 1 1 1 1 1 1 1 1 1 1 1 1 1 1 1) memorymapping=yes
New loadshape.138651c0 npts=24 mult=(1 1 1 1 1 1 1 1 1 1 1 1 1 1 1 1 1 1 1 1 1 1 1 1) memorymapping=yes
New loadshape.138652c0 npts=24 mult=(1 1 1 1 1 1 1 1 1 1 1 1 1 1 1 1 1 1 1 1 1 1 1 1) memorymapping=yes
New loadshape.138655a0 npts=24 mult=(1 1 1 1 1 1 1 1 1 1 1 1 1 1 1 1 1 1 1 1 1 1 1 1) memorymapping=yes
New loadshape.138679a0 npts=24 mult=(1 1 1 1 1 1 1 1 1 1 1 1 1 1 1 1 1 1 1 1 1 1 1 1) memorymapping=yes
New loadshape.138680a0 npts=24 mult=(1 1 1 1 1 1 1 1 1 1 1 1 1 1 1 1 1 1 1 1 1 1 1 1) memorymapping=yes
New loadshape.138684a0 npts=24 mult=(1 1 1 1 1 1 1 1 1 1 1 1 1 1 1 1 1 1 1 1 1 1 1 1) memorymapping=yes
New loadshape.138685a0 npts=24 mult=(1 1 1 1 1 1 1 1 1 1 1 1 1 1 1 1 1 1 1 1 1 1 1 1) memorymapping=yes
New loadshape.138716c0 npts=24 mult=(1 1 1 1 1 1 1 1 1 1 1 1 1 1 1 1 1 1 1 1 1 1 1 1) memorymapping=yes
New loadshape.138717c0 npts=24 mult=(1 1 1 1 1 1 1 1 1 1 1 1 1 1 1 1 1 1 1 1 1 1 1 1) memorymapping=yes
New loadshape.138718c0 npts=24 mult=(1 1 1 1 1 1 1 1 1 1 1 1 1 1 1 1 1 1 1 1 1 1 1 1) memorymapping=yes
New loadshape.138719a0 npts=24 mult=(1 1 1 1 1 1 1 1 1 1 1 1 1 1 1 1 1 1 1 1 1 1 1 1) memorymapping=yes
New loadshape.138720a0 npts=24 mult=(1 1 1 1 1 1 1 1 1 1 1 1 1 1 1 1 1 1 1 1 1 1 1 1) memorymapping=yes
New loadshape.138751b0 npts=24 mult=(1 1 1 1 1 1 1 1 1 1 1 1 1 1 1 1 1 1 1 1 1 1 1 1) memorymapping=yes
New loadshape.138752b0 npts=24 mult=(1 1 1 1 1 1 1 1 1 1 1 1 1 1 1 1 1 1 1 1 1 1 1 1) memorymapping=yes
New loadshape.138753b0 npts=24 mult=(1 1 1 1 1 1 1 1 1 1 1 1 1 1 1 1 1 1 1 1 1 1 1 1) memorymapping=yes
New loadshape.138754b0 npts=24 mult=(1 1 1 1 1 1 1 1 1 1 1 1 1 1 1 1 1 1 1 1 1 1 1 1) memorymapping=yes
New loadshape.138755b0 npts=24 mult=(1 1 1 1 1 1 1 1 1 1 1 1 1 1 1 1 1 1 1 1 1 1 1 1) memorymapping=yes
New loadshape.138769a0 npts=24 mult=(1 1 1 1 1 1 1 1 1 1 1 1 1 1 1 1 1 1 1 1 1 1 1 1) memorymapping=yes
New loadshape.138770a0 npts=24 mult=(1 1 1 1 1 1 1 1 1 1 1 1 1 1 1 1 1 1 1 1 1 1 1 1) memorymapping=yes
New loadshape.138771a0 npts=24 mult=(1 1 1 1 1 1 1 1 1 1 1 1 1 1 1 1 1 1 1 1 1 1 1 1) memorymapping=yes
New loadshape.138776c0 npts=24 mult=(1 1 1 1 1 1 1 1 1 1 1 1 1 1 1 1 1 1 1 1 1 1 1 1) memorymapping=yes
New loadshape.138796b0 npts=24 mult=(1 1 1 1 1 1 1 1 1 1 1 1 1 1 1 1 1 1 1 1 1 1 1 1) memorymapping=yes
New loadshape.138797b0 npts=24 mult=(1 1 1 1 1 1 1 1 1 1 1 1 1 1 1 1 1 1 1 1 1 1 1 1) memorymapping=yes
New loadshape.138798b0 npts=24 mult=(1 1 1 1 1 1 1 1 1 1 1 1 1 1 1 1 1 1 1 1 1 1 1 1) memorymapping=yes
New loadshape.157715b0 npts=24 mult=(1 1 1 1 1 1 1 1 1 1 1 1 1 1 1 1 1 1 1 1 1 1 1 1) memorymapping=yes
New loadshape.157716b0 npts=24 mult=(1 1 1 1 1 1 1 1 1 1 1 1 1 1 1 1 1 1 1 1 1 1 1 1) memorymapping=yes
New loadshape.157717b0 npts=24 mult=(1 1 1 1 1 1 1 1 1 1 1 1 1 1 1 1 1 1 1 1 1 1 1 1) memorymapping=yes
New loadshape.157718b0 npts=24 mult=(1 1 1 1 1 1 1 1 1 1 1 1 1 1 1 1 1 1 1 1 1 1 1 1) memorymapping=yes
New loadshape.207286c0 npts=24 mult=(1 1 1 1 1 1 1 1 1 1 1 1 1 1 1 1 1 1 1 1 1 1 1 1) memorymapping=yes
New loadshape.207287b0 npts=24 mult=(1 1 1 1 1 1 1 1 1 1 1 1 1 1 1 1 1 1 1 1 1 1 1 1) memorymapping=yes
New loadshape.207288b0 npts=24 mult=(1 1 1 1 1 1 1 1 1 1 1 1 1 1 1 1 1 1 1 1 1 1 1 1) memorymapping=yes
New loadshape.207290a0 npts=24 mult=(1 1 1 1 1 1 1 1 1 1 1 1 1 1 1 1 1 1 1 1 1 1 1 1) memorymapping=yes
New loadshape.207291c0 npts=24 mult=(1 1 1 1 1 1 1 1 1 1 1 1 1 1 1 1 1 1 1 1 1 1 1 1) memorymapping=yes
New loadshape.207292c0 npts=24 mult=(1 1 1 1 1 1 1 1 1 1 1 1 1 1 1 1 1 1 1 1 1 1 1 1) memorymapping=yes
New loadshape.218472a0 npts=24 mult=(1 1 1 1 1 1 1 1 1 1 1 1 1 1 1 1 1 1 1 1 1 1 1 1) memorymapping=yes
New loadshape.218473a0 npts=24 mult=(1 1 1 1 1 1 1 1 1 1 1 1 1 1 1 1 1 1 1 1 1 1 1 1) memorymapping=yes
New loadshape.218474a0 npts=24 mult=(1 1 1 1 1 1 1 1 1 1 1 1 1 1 1 1 1 1 1 1 1 1 1 1) memorymapping=yes
New loadshape.218475a0 npts=24 mult=(1 1 1 1 1 1 1 1 1 1 1 1 1 1 1 1 1 1 1 1 1 1 1 1) memorymapping=yes
New loadshape.223655c0 npts=24 mult=(1 1 1 1 1 1 1 1 1 1 1 1 1 1 1 1 1 1 1 1 1 1 1 1) memorymapping=yes
New loadshape.223658a0 npts=24 mult=(1 1 1 1 1 1 1 1 1 1 1 1 1 1 1 1 1 1 1 1 1 1 1 1) memorymapping=yes
New loadshape.223660c0 npts=24 mult=(1 1 1 1 1 1 1 1 1 1 1 1 1 1 1 1 1 1 1 1 1 1 1 1) memorymapping=yes
New loadshape.223661c0 npts=24 mult=(1 1 1 1 1 1 1 1 1 1 1 1 1 1 1 1 1 1 1 1 1 1 1 1) memorymapping=yes
New loadshape.223662c0 npts=24 mult=(1 1 1 1 1 1 1 1 1 1 1 1 1 1 1 1 1 1 1 1 1 1 1 1) memorymapping=yes
New loadshape.223663c0 npts=24 mult=(1 1 1 1 1 1 1 1 1 1 1 1 1 1 1 1 1 1 1 1 1 1 1 1) memorymapping=yes
New loadshape.247036c0 npts=24 mult=(1 1 1 1 1 1 1 1 1 1 1 1 1 1 1 1 1 1 1 1 1 1 1 1) memorymapping=yes
New loadshape.247056a0 npts=24 mult=(1 1 1 1 1 1 1 1 1 1 1 1 1 1 1 1 1 1 1 1 1 1 1 1) memorymapping=yes
New loadshape.247057a0 npts=24 mult=(1 1 1 1 1 1 1 1 1 1 1 1 1 1 1 1 1 1 1 1 1 1 1 1) memorymapping=yes
New loadshape.247058a0 npts=24 mult=(1 1 1 1 1 1 1 1 1 1 1 1 1 1 1 1 1 1 1 1 1 1 1 1) memorymapping=yes
New loadshape.247059a0 npts=24 mult=(1 1 1 1 1 1 1 1 1 1 1 1 1 1 1 1 1 1 1 1 1 1 1 1) memorymapping=yes
New loadshape.247060a0 npts=24 mult=(1 1 1 1 1 1 1 1 1 1 1 1 1 1 1 1 1 1 1 1 1 1 1 1) memorymapping=yes
New loadshape.247061a0 npts=24 mult=(1 1 1 1 1 1 1 1 1 1 1 1 1 1 1 1 1 1 1 1 1 1 1 1) memorymapping=yes
New loadshape.247084b0 npts=24 mult=(1 1 1 1 1 1 1 1 1 1 1 1 1 1 1 1 1 1 1 1 1 1 1 1) memorymapping=yes
New loadshape.247100b0 npts=24 mult=(1 1 1 1 1 1 1 1 1 1 1 1 1 1 1 1 1 1 1 1 1 1 1 1) memorymapping=yes
New loadshape.247105b0 npts=24 mult=(1 1 1 1 1 1 1 1 1 1 1 1 1 1 1 1 1 1 1 1 1 1 1 1) memorymapping=yes
New loadshape.247122b0 npts=24 mult=(1 1 1 1 1 1 1 1 1 1 1 1 1 1 1 1 1 1 1 1 1 1 1 1) memorymapping=yes
New loadshape.247126b0 npts=24 mult=(1 1 1 1 1 1 1 1 1 1 1 1 1 1 1 1 1 1 1 1 1 1 1 1) memorymapping=yes
New loadshape.247160b0 npts=24 mult=(1 1 1 1 1 1 1 1 1 1 1 1 1 1 1 1 1 1 1 1 1 1 1 1) memorymapping=yes
New loadshape.247162b0 npts=24 mult=(1 1 1 1 1 1 1 1 1 1 1 1 1 1 1 1 1 1 1 1 1 1 1 1) memorymapping=yes
New loadshape.247164b0 npts=24 mult=(1 1 1 1 1 1 1 1 1 1 1 1 1 1 1 1 1 1 1 1 1 1 1 1) memorymapping=yes
New loadshape.247170b0 npts=24 mult=(1 1 1 1 1 1 1 1 1 1 1 1 1 1 1 1 1 1 1 1 1 1 1 1) memorymapping=yes
New loadshape.247171b0 npts=24 mult=(1 1 1 1 1 1 1 1 1 1 1 1 1 1 1 1 1 1 1 1 1 1 1 1) memorymapping=yes
New loadshape.247184c0 npts=24 mult=(1 1 1 1 1 1 1 1 1 1 1 1 1 1 1 1 1 1 1 1 1 1 1 1) memorymapping=yes
New loadshape.247185b0 npts=24 mult=(1 1 1 1 1 1 1 1 1 1 1 1 1 1 1 1 1 1 1 1 1 1 1 1) memorymapping=yes
New loadshape.251828b0 npts=24 mult=(1 1 1 1 1 1 1 1 1 1 1 1 1 1 1 1 1 1 1 1 1 1 1 1) memorymapping=yes
New loadshape.251855c0 npts=24 mult=(1 1 1 1 1 1 1 1 1 1 1 1 1 1 1 1 1 1 1 1 1 1 1 1) memorymapping=yes
New loadshape.251856c0 npts=24 mult=(1 1 1 1 1 1 1 1 1 1 1 1 1 1 1 1 1 1 1 1 1 1 1 1) memorymapping=yes
New loadshape.251857c0 npts=24 mult=(1 1 1 1 1 1 1 1 1 1 1 1 1 1 1 1 1 1 1 1 1 1 1 1) memorymapping=yes
New loadshape.251858c0 npts=24 mult=(1 1 1 1 1 1 1 1 1 1 1 1 1 1 1 1 1 1 1 1 1 1 1 1) memorymapping=yes
New loadshape.251859c0 npts=24 mult=(1 1 1 1 1 1 1 1 1 1 1 1 1 1 1 1 1 1 1 1 1 1 1 1) memorymapping=yes
New loadshape.251862c0 npts=24 mult=(1 1 1 1 1 1 1 1 1 1 1 1 1 1 1 1 1 1 1 1 1 1 1 1) memorymapping=yes
New loadshape.251863c0 npts=24 mult=(1 1 1 1 1 1 1 1 1 1 1 1 1 1 1 1 1 1 1 1 1 1 1 1) memorymapping=yes
New loadshape.251865c0 npts=24 mult=(1 1 1 1 1 1 1 1 1 1 1 1 1 1 1 1 1 1 1 1 1 1 1 1) memorymapping=yes
New loadshape.251867c0 npts=24 mult=(1 1 1 1 1 1 1 1 1 1 1 1 1 1 1 1 1 1 1 1 1 1 1 1) memorymapping=yes
New loadshape.260457b0 npts=24 mult=(1 1 1 1 1 1 1 1 1 1 1 1 1 1 1 1 1 1 1 1 1 1 1 1) memorymapping=yes
New loadshape.260458b0 npts=24 mult=(1 1 1 1 1 1 1 1 1 1 1 1 1 1 1 1 1 1 1 1 1 1 1 1) memorymapping=yes
New loadshape.260461b0 npts=24 mult=(1 1 1 1 1 1 1 1 1 1 1 1 1 1 1 1 1 1 1 1 1 1 1 1) memorymapping=yes
New loadshape.260463b0 npts=24 mult=(1 1 1 1 1 1 1 1 1 1 1 1 1 1 1 1 1 1 1 1 1 1 1 1) memorymapping=yes
New loadshape.260464a0 npts=24 mult=(1 1 1 1 1 1 1 1 1 1 1 1 1 1 1 1 1 1 1 1 1 1 1 1) memorymapping=yes
New loadshape.260467a0 npts=24 mult=(1 1 1 1 1 1 1 1 1 1 1 1 1 1 1 1 1 1 1 1 1 1 1 1) memorymapping=yes
New loadshape.260473a0 npts=24 mult=(1 1 1 1 1 1 1 1 1 1 1 1 1 1 1 1 1 1 1 1 1 1 1 1) memorymapping=yes
New loadshape.260474a0 npts=24 mult=(1 1 1 1 1 1 1 1 1 1 1 1 1 1 1 1 1 1 1 1 1 1 1 1) memorymapping=yes
New loadshape.260475a0 npts=24 mult=(1 1 1 1 1 1 1 1 1 1 1 1 1 1 1 1 1 1 1 1 1 1 1 1) memorymapping=yes
New loadshape.260476a0 npts=24 mult=(1 1 1 1 1 1 1 1 1 1 1 1 1 1 1 1 1 1 1 1 1 1 1 1) memorymapping=yes
New loadshape.260479a0 npts=24 mult=(1 1 1 1 1 1 1 1 1 1 1 1 1 1 1 1 1 1 1 1 1 1 1 1) memorymapping=yes
New loadshape.260480c0 npts=24 mult=(1 1 1 1 1 1 1 1 1 1 1 1 1 1 1 1 1 1 1 1 1 1 1 1) memorymapping=yes
New loadshape.260481c0 npts=24 mult=(1 1 1 1 1 1 1 1 1 1 1 1 1 1 1 1 1 1 1 1 1 1 1 1) memorymapping=yes
New loadshape.260484a0 npts=24 mult=(1 1 1 1 1 1 1 1 1 1 1 1 1 1 1 1 1 1 1 1 1 1 1 1) memorymapping=yes
New loadshape.260487a0 npts=24 mult=(1 1 1 1 1 1 1 1 1 1 1 1 1 1 1 1 1 1 1 1 1 1 1 1) memorymapping=yes
New loadshape.260488a0 npts=24 mult=(1 1 1 1 1 1 1 1 1 1 1 1 1 1 1 1 1 1 1 1 1 1 1 1) memorymapping=yes
New loadshape.260491c0 npts=24 mult=(1 1 1 1 1 1 1 1 1 1 1 1 1 1 1 1 1 1 1 1 1 1 1 1) memorymapping=yes
New loadshape.260494b0 npts=24 mult=(1 1 1 1 1 1 1 1 1 1 1 1 1 1 1 1 1 1 1 1 1 1 1 1) memorymapping=yes
New loadshape.260495b0 npts=24 mult=(1 1 1 1 1 1 1 1 1 1 1 1 1 1 1 1 1 1 1 1 1 1 1 1) memorymapping=yes
New loadshape.260496b0 npts=24 mult=(1 1 1 1 1 1 1 1 1 1 1 1 1 1 1 1 1 1 1 1 1 1 1 1) memorymapping=yes
New loadshape.260500b0 npts=24 mult=(1 1 1 1 1 1 1 1 1 1 1 1 1 1 1 1 1 1 1 1 1 1 1 1) memorymapping=yes
New loadshape.260501b0 npts=24 mult=(1 1 1 1 1 1 1 1 1 1 1 1 1 1 1 1 1 1 1 1 1 1 1 1) memorymapping=yes
New loadshape.260502b0 npts=24 mult=(1 1 1 1 1 1 1 1 1 1 1 1 1 1 1 1 1 1 1 1 1 1 1 1) memorymapping=yes
New loadshape.260503b0 npts=24 mult=(1 1 1 1 1 1 1 1 1 1 1 1 1 1 1 1 1 1 1 1 1 1 1 1) memorymapping=yes
New loadshape.260505c0 npts=24 mult=(1 1 1 1 1 1 1 1 1 1 1 1 1 1 1 1 1 1 1 1 1 1 1 1) memorymapping=yes
New loadshape.260508a0 npts=24 mult=(1 1 1 1 1 1 1 1 1 1 1 1 1 1 1 1 1 1 1 1 1 1 1 1) memorymapping=yes
New loadshape.260511c0 npts=24 mult=(1 1 1 1 1 1 1 1 1 1 1 1 1 1 1 1 1 1 1 1 1 1 1 1) memorymapping=yes
New loadshape.260513c0 npts=24 mult=(1 1 1 1 1 1 1 1 1 1 1 1 1 1 1 1 1 1 1 1 1 1 1 1) memorymapping=yes
New loadshape.260514c0 npts=24 mult=(1 1 1 1 1 1 1 1 1 1 1 1 1 1 1 1 1 1 1 1 1 1 1 1) memorymapping=yes
New loadshape.260515a0 npts=24 mult=(1 1 1 1 1 1 1 1 1 1 1 1 1 1 1 1 1 1 1 1 1 1 1 1) memorymapping=yes
New loadshape.260517c0 npts=24 mult=(1 1 1 1 1 1 1 1 1 1 1 1 1 1 1 1 1 1 1 1 1 1 1 1) memorymapping=yes
New loadshape.260518c0 npts=24 mult=(1 1 1 1 1 1 1 1 1 1 1 1 1 1 1 1 1 1 1 1 1 1 1 1) memorymapping=yes
New loadshape.260520b0 npts=24 mult=(1 1 1 1 1 1 1 1 1 1 1 1 1 1 1 1 1 1 1 1 1 1 1 1) memorymapping=yes
New loadshape.260521b0 npts=24 mult=(1 1 1 1 1 1 1 1 1 1 1 1 1 1 1 1 1 1 1 1 1 1 1 1) memorymapping=yes
New loadshape.260527b0 npts=24 mult=(1 1 1 1 1 1 1 1 1 1 1 1 1 1 1 1 1 1 1 1 1 1 1 1) memorymapping=yes
New loadshape.260528c0 npts=24 mult=(1 1 1 1 1 1 1 1 1 1 1 1 1 1 1 1 1 1 1 1 1 1 1 1) memorymapping=yes
New loadshape.260529c0 npts=24 mult=(1 1 1 1 1 1 1 1 1 1 1 1 1 1 1 1 1 1 1 1 1 1 1 1) memorymapping=yes
New loadshape.260532c0 npts=24 mult=(1 1 1 1 1 1 1 1 1 1 1 1 1 1 1 1 1 1 1 1 1 1 1 1) memorymapping=yes
New loadshape.260535c0 npts=24 mult=(1 1 1 1 1 1 1 1 1 1 1 1 1 1 1 1 1 1 1 1 1 1 1 1) memorymapping=yes
New loadshape.260542a0 npts=24 mult=(1 1 1 1 1 1 1 1 1 1 1 1 1 1 1 1 1 1 1 1 1 1 1 1) memorymapping=yes
New loadshape.260543c0 npts=24 mult=(1 1 1 1 1 1 1 1 1 1 1 1 1 1 1 1 1 1 1 1 1 1 1 1) memorymapping=yes
New loadshape.260551c0 npts=24 mult=(1 1 1 1 1 1 1 1 1 1 1 1 1 1 1 1 1 1 1 1 1 1 1 1) memorymapping=yes
New loadshape.260552a0 npts=24 mult=(1 1 1 1 1 1 1 1 1 1 1 1 1 1 1 1 1 1 1 1 1 1 1 1) memorymapping=yes
New loadshape.260553c0 npts=24 mult=(1 1 1 1 1 1 1 1 1 1 1 1 1 1 1 1 1 1 1 1 1 1 1 1) memorymapping=yes
New loadshape.260554c0 npts=24 mult=(1 1 1 1 1 1 1 1 1 1 1 1 1 1 1 1 1 1 1 1 1 1 1 1) memorymapping=yes
New loadshape.260555a0 npts=24 mult=(1 1 1 1 1 1 1 1 1 1 1 1 1 1 1 1 1 1 1 1 1 1 1 1) memorymapping=yes
New loadshape.260558c0 npts=24 mult=(1 1 1 1 1 1 1 1 1 1 1 1 1 1 1 1 1 1 1 1 1 1 1 1) memorymapping=yes
New loadshape.260561c0 npts=24 mult=(1 1 1 1 1 1 1 1 1 1 1 1 1 1 1 1 1 1 1 1 1 1 1 1) memorymapping=yes
New loadshape.260562a0 npts=24 mult=(1 1 1 1 1 1 1 1 1 1 1 1 1 1 1 1 1 1 1 1 1 1 1 1) memorymapping=yes
New loadshape.260567c0 npts=24 mult=(1 1 1 1 1 1 1 1 1 1 1 1 1 1 1 1 1 1 1 1 1 1 1 1) memorymapping=yes
New loadshape.260568c0 npts=24 mult=(1 1 1 1 1 1 1 1 1 1 1 1 1 1 1 1 1 1 1 1 1 1 1 1) memorymapping=yes
New loadshape.260569c0 npts=24 mult=(1 1 1 1 1 1 1 1 1 1 1 1 1 1 1 1 1 1 1 1 1 1 1 1) memorymapping=yes
New loadshape.260572c0 npts=24 mult=(1 1 1 1 1 1 1 1 1 1 1 1 1 1 1 1 1 1 1 1 1 1 1 1) memorymapping=yes
New loadshape.260573c0 npts=24 mult=(1 1 1 1 1 1 1 1 1 1 1 1 1 1 1 1 1 1 1 1 1 1 1 1) memorymapping=yes
New loadshape.260574c0 npts=24 mult=(1 1 1 1 1 1 1 1 1 1 1 1 1 1 1 1 1 1 1 1 1 1 1 1) memorymapping=yes
New loadshape.260575b0 npts=24 mult=(1 1 1 1 1 1 1 1 1 1 1 1 1 1 1 1 1 1 1 1 1 1 1 1) memorymapping=yes
New loadshape.260576c0 npts=24 mult=(1 1 1 1 1 1 1 1 1 1 1 1 1 1 1 1 1 1 1 1 1 1 1 1) memorymapping=yes
New loadshape.260577c0 npts=24 mult=(1 1 1 1 1 1 1 1 1 1 1 1 1 1 1 1 1 1 1 1 1 1 1 1) memorymapping=yes
New loadshape.260581c0 npts=24 mult=(1 1 1 1 1 1 1 1 1 1 1 1 1 1 1 1 1 1 1 1 1 1 1 1) memorymapping=yes
New loadshape.260586b0 npts=24 mult=(1 1 1 1 1 1 1 1 1 1 1 1 1 1 1 1 1 1 1 1 1 1 1 1) memorymapping=yes
New loadshape.260589b0 npts=24 mult=(1 1 1 1 1 1 1 1 1 1 1 1 1 1 1 1 1 1 1 1 1 1 1 1) memorymapping=yes
New loadshape.260590b0 npts=24 mult=(1 1 1 1 1 1 1 1 1 1 1 1 1 1 1 1 1 1 1 1 1 1 1 1) memorymapping=yes
New loadshape.260591b0 npts=24 mult=(1 1 1 1 1 1 1 1 1 1 1 1 1 1 1 1 1 1 1 1 1 1 1 1) memorymapping=yes
New loadshape.260594a0 npts=24 mult=(1 1 1 1 1 1 1 1 1 1 1 1 1 1 1 1 1 1 1 1 1 1 1 1) memorymapping=yes
New loadshape.260595a0 npts=24 mult=(1 1 1 1 1 1 1 1 1 1 1 1 1 1 1 1 1 1 1 1 1 1 1 1) memorymapping=yes
New loadshape.260595b0 npts=24 mult=(1 1 1 1 1 1 1 1 1 1 1 1 1 1 1 1 1 1 1 1 1 1 1 1) memorymapping=yes
New loadshape.260595c0 npts=24 mult=(1 1 1 1 1 1 1 1 1 1 1 1 1 1 1 1 1 1 1 1 1 1 1 1) memorymapping=yes
New loadshape.260598a0 npts=24 mult=(1 1 1 1 1 1 1 1 1 1 1 1 1 1 1 1 1 1 1 1 1 1 1 1) memorymapping=yes
New loadshape.260601c0 npts=24 mult=(1 1 1 1 1 1 1 1 1 1 1 1 1 1 1 1 1 1 1 1 1 1 1 1) memorymapping=yes
New loadshape.260602b0 npts=24 mult=(1 1 1 1 1 1 1 1 1 1 1 1 1 1 1 1 1 1 1 1 1 1 1 1) memorymapping=yes
New loadshape.260605a0 npts=24 mult=(1 1 1 1 1 1 1 1 1 1 1 1 1 1 1 1 1 1 1 1 1 1 1 1) memorymapping=yes
New loadshape.260607b0 npts=24 mult=(1 1 1 1 1 1 1 1 1 1 1 1 1 1 1 1 1 1 1 1 1 1 1 1) memorymapping=yes
New loadshape.260620c0 npts=24 mult=(1 1 1 1 1 1 1 1 1 1 1 1 1 1 1 1 1 1 1 1 1 1 1 1) memorymapping=yes
New loadshape.260621c0 npts=24 mult=(1 1 1 1 1 1 1 1 1 1 1 1 1 1 1 1 1 1 1 1 1 1 1 1) memorymapping=yes
New loadshape.260622c0 npts=24 mult=(1 1 1 1 1 1 1 1 1 1 1 1 1 1 1 1 1 1 1 1 1 1 1 1) memorymapping=yes
New loadshape.260624c0 npts=24 mult=(1 1 1 1 1 1 1 1 1 1 1 1 1 1 1 1 1 1 1 1 1 1 1 1) memorymapping=yes
New loadshape.260625c0 npts=24 mult=(1 1 1 1 1 1 1 1 1 1 1 1 1 1 1 1 1 1 1 1 1 1 1 1) memorymapping=yes
New loadshape.260627a0 npts=24 mult=(1 1 1 1 1 1 1 1 1 1 1 1 1 1 1 1 1 1 1 1 1 1 1 1) memorymapping=yes
New loadshape.260630b0 npts=24 mult=(1 1 1 1 1 1 1 1 1 1 1 1 1 1 1 1 1 1 1 1 1 1 1 1) memorymapping=yes
New loadshape.260631a0 npts=24 mult=(1 1 1 1 1 1 1 1 1 1 1 1 1 1 1 1 1 1 1 1 1 1 1 1) memorymapping=yes
New loadshape.260632a0 npts=24 mult=(1 1 1 1 1 1 1 1 1 1 1 1 1 1 1 1 1 1 1 1 1 1 1 1) memorymapping=yes
New loadshape.260634a0 npts=24 mult=(1 1 1 1 1 1 1 1 1 1 1 1 1 1 1 1 1 1 1 1 1 1 1 1) memorymapping=yes
New loadshape.260637c0 npts=24 mult=(1 1 1 1 1 1 1 1 1 1 1 1 1 1 1 1 1 1 1 1 1 1 1 1) memorymapping=yes
New loadshape.260638c0 npts=24 mult=(1 1 1 1 1 1 1 1 1 1 1 1 1 1 1 1 1 1 1 1 1 1 1 1) memorymapping=yes
New loadshape.260639c0 npts=24 mult=(1 1 1 1 1 1 1 1 1 1 1 1 1 1 1 1 1 1 1 1 1 1 1 1) memorymapping=yes
New loadshape.260640c0 npts=24 mult=(1 1 1 1 1 1 1 1 1 1 1 1 1 1 1 1 1 1 1 1 1 1 1 1) memorymapping=yes
New loadshape.260641b0 npts=24 mult=(1 1 1 1 1 1 1 1 1 1 1 1 1 1 1 1 1 1 1 1 1 1 1 1) memorymapping=yes
New loadshape.260643a0 npts=24 mult=(1 1 1 1 1 1 1 1 1 1 1 1 1 1 1 1 1 1 1 1 1 1 1 1) memorymapping=yes
New loadshape.260647a0 npts=24 mult=(1 1 1 1 1 1 1 1 1 1 1 1 1 1 1 1 1 1 1 1 1 1 1 1) memorymapping=yes
New loadshape.260648a0 npts=24 mult=(1 1 1 1 1 1 1 1 1 1 1 1 1 1 1 1 1 1 1 1 1 1 1 1) memorymapping=yes
New loadshape.260650a0 npts=24 mult=(1 1 1 1 1 1 1 1 1 1 1 1 1 1 1 1 1 1 1 1 1 1 1 1) memorymapping=yes
New loadshape.262075c0 npts=24 mult=(1 1 1 1 1 1 1 1 1 1 1 1 1 1 1 1 1 1 1 1 1 1 1 1) memorymapping=yes
New loadshape.274903c0 npts=24 mult=(1 1 1 1 1 1 1 1 1 1 1 1 1 1 1 1 1 1 1 1 1 1 1 1) memorymapping=yes
New loadshape.274985c0 npts=24 mult=(1 1 1 1 1 1 1 1 1 1 1 1 1 1 1 1 1 1 1 1 1 1 1 1) memorymapping=yes
New loadshape.274986c0 npts=24 mult=(1 1 1 1 1 1 1 1 1 1 1 1 1 1 1 1 1 1 1 1 1 1 1 1) memorymapping=yes
New loadshape.274987c0 npts=24 mult=(1 1 1 1 1 1 1 1 1 1 1 1 1 1 1 1 1 1 1 1 1 1 1 1) memorymapping=yes
New loadshape.274988c0 npts=24 mult=(1 1 1 1 1 1 1 1 1 1 1 1 1 1 1 1 1 1 1 1 1 1 1 1) memorymapping=yes
New loadshape.274992c0 npts=24 mult=(1 1 1 1 1 1 1 1 1 1 1 1 1 1 1 1 1 1 1 1 1 1 1 1) memorymapping=yes
New loadshape.274994c0 npts=24 mult=(1 1 1 1 1 1 1 1 1 1 1 1 1 1 1 1 1 1 1 1 1 1 1 1) memorymapping=yes
New loadshape.274997c0 npts=24 mult=(1 1 1 1 1 1 1 1 1 1 1 1 1 1 1 1 1 1 1 1 1 1 1 1) memorymapping=yes
New loadshape.274999c0 npts=24 mult=(1 1 1 1 1 1 1 1 1 1 1 1 1 1 1 1 1 1 1 1 1 1 1 1) memorymapping=yes
New loadshape.275000c0 npts=24 mult=(1 1 1 1 1 1 1 1 1 1 1 1 1 1 1 1 1 1 1 1 1 1 1 1) memorymapping=yes
New loadshape.275001c0 npts=24 mult=(1 1 1 1 1 1 1 1 1 1 1 1 1 1 1 1 1 1 1 1 1 1 1 1) memorymapping=yes
New loadshape.275002c0 npts=24 mult=(1 1 1 1 1 1 1 1 1 1 1 1 1 1 1 1 1 1 1 1 1 1 1 1) memorymapping=yes
New loadshape.275007c0 npts=24 mult=(1 1 1 1 1 1 1 1 1 1 1 1 1 1 1 1 1 1 1 1 1 1 1 1) memorymapping=yes
New loadshape.275008c0 npts=24 mult=(1 1 1 1 1 1 1 1 1 1 1 1 1 1 1 1 1 1 1 1 1 1 1 1) memorymapping=yes
New loadshape.275247b0 npts=24 mult=(1 1 1 1 1 1 1 1 1 1 1 1 1 1 1 1 1 1 1 1 1 1 1 1) memorymapping=yes
New loadshape.275248b0 npts=24 mult=(1 1 1 1 1 1 1 1 1 1 1 1 1 1 1 1 1 1 1 1 1 1 1 1) memorymapping=yes
New loadshape.293422c0 npts=24 mult=(1 1 1 1 1 1 1 1 1 1 1 1 1 1 1 1 1 1 1 1 1 1 1 1) memorymapping=yes
New loadshape.293423b0 npts=24 mult=(1 1 1 1 1 1 1 1 1 1 1 1 1 1 1 1 1 1 1 1 1 1 1 1) memorymapping=yes
New loadshape.293424c0 npts=24 mult=(1 1 1 1 1 1 1 1 1 1 1 1 1 1 1 1 1 1 1 1 1 1 1 1) memorymapping=yes
New loadshape.293425a0 npts=24 mult=(1 1 1 1 1 1 1 1 1 1 1 1 1 1 1 1 1 1 1 1 1 1 1 1) memorymapping=yes
New loadshape.293427c0 npts=24 mult=(1 1 1 1 1 1 1 1 1 1 1 1 1 1 1 1 1 1 1 1 1 1 1 1) memorymapping=yes
New loadshape.293471a0 npts=24 mult=(1 1 1 1 1 1 1 1 1 1 1 1 1 1 1 1 1 1 1 1 1 1 1 1) memorymapping=yes
New loadshape.293471b0 npts=24 mult=(1 1 1 1 1 1 1 1 1 1 1 1 1 1 1 1 1 1 1 1 1 1 1 1) memorymapping=yes
New loadshape.293471c0 npts=24 mult=(1 1 1 1 1 1 1 1 1 1 1 1 1 1 1 1 1 1 1 1 1 1 1 1) memorymapping=yes
New loadshape.293480a0 npts=24 mult=(1 1 1 1 1 1 1 1 1 1 1 1 1 1 1 1 1 1 1 1 1 1 1 1) memorymapping=yes
New loadshape.293483a0 npts=24 mult=(1 1 1 1 1 1 1 1 1 1 1 1 1 1 1 1 1 1 1 1 1 1 1 1) memorymapping=yes
New loadshape.293486c0 npts=24 mult=(1 1 1 1 1 1 1 1 1 1 1 1 1 1 1 1 1 1 1 1 1 1 1 1) memorymapping=yes
New loadshape.293487b0 npts=24 mult=(1 1 1 1 1 1 1 1 1 1 1 1 1 1 1 1 1 1 1 1 1 1 1 1) memorymapping=yes
New loadshape.293490c0 npts=24 mult=(1 1 1 1 1 1 1 1 1 1 1 1 1 1 1 1 1 1 1 1 1 1 1 1) memorymapping=yes
New loadshape.293492c0 npts=24 mult=(1 1 1 1 1 1 1 1 1 1 1 1 1 1 1 1 1 1 1 1 1 1 1 1) memorymapping=yes
New loadshape.293518b0 npts=24 mult=(1 1 1 1 1 1 1 1 1 1 1 1 1 1 1 1 1 1 1 1 1 1 1 1) memorymapping=yes
New loadshape.293519b0 npts=24 mult=(1 1 1 1 1 1 1 1 1 1 1 1 1 1 1 1 1 1 1 1 1 1 1 1) memorymapping=yes
New loadshape.293521a0 npts=24 mult=(1 1 1 1 1 1 1 1 1 1 1 1 1 1 1 1 1 1 1 1 1 1 1 1) memorymapping=yes
New loadshape.293521b0 npts=24 mult=(1 1 1 1 1 1 1 1 1 1 1 1 1 1 1 1 1 1 1 1 1 1 1 1) memorymapping=yes
New loadshape.293521c0 npts=24 mult=(1 1 1 1 1 1 1 1 1 1 1 1 1 1 1 1 1 1 1 1 1 1 1 1) memorymapping=yes
New loadshape.293522a0 npts=24 mult=(1 1 1 1 1 1 1 1 1 1 1 1 1 1 1 1 1 1 1 1 1 1 1 1) memorymapping=yes
New loadshape.293523a0 npts=24 mult=(1 1 1 1 1 1 1 1 1 1 1 1 1 1 1 1 1 1 1 1 1 1 1 1) memorymapping=yes
New loadshape.293591a0 npts=24 mult=(1 1 1 1 1 1 1 1 1 1 1 1 1 1 1 1 1 1 1 1 1 1 1 1) memorymapping=yes
New loadshape.293592a0 npts=24 mult=(1 1 1 1 1 1 1 1 1 1 1 1 1 1 1 1 1 1 1 1 1 1 1 1) memorymapping=yes
New loadshape.293608c0 npts=24 mult=(1 1 1 1 1 1 1 1 1 1 1 1 1 1 1 1 1 1 1 1 1 1 1 1) memorymapping=yes
New loadshape.293609c0 npts=24 mult=(1 1 1 1 1 1 1 1 1 1 1 1 1 1 1 1 1 1 1 1 1 1 1 1) memorymapping=yes
New loadshape.293644a0 npts=24 mult=(1 1 1 1 1 1 1 1 1 1 1 1 1 1 1 1 1 1 1 1 1 1 1 1) memorymapping=yes
New loadshape.293645a0 npts=24 mult=(1 1 1 1 1 1 1 1 1 1 1 1 1 1 1 1 1 1 1 1 1 1 1 1) memorymapping=yes
New loadshape.293652a0 npts=24 mult=(1 1 1 1 1 1 1 1 1 1 1 1 1 1 1 1 1 1 1 1 1 1 1 1) memorymapping=yes
New loadshape.293652b0 npts=24 mult=(1 1 1 1 1 1 1 1 1 1 1 1 1 1 1 1 1 1 1 1 1 1 1 1) memorymapping=yes
New loadshape.293652c0 npts=24 mult=(1 1 1 1 1 1 1 1 1 1 1 1 1 1 1 1 1 1 1 1 1 1 1 1) memorymapping=yes
New loadshape.293655a0 npts=24 mult=(1 1 1 1 1 1 1 1 1 1 1 1 1 1 1 1 1 1 1 1 1 1 1 1) memorymapping=yes
New loadshape.293655b0 npts=24 mult=(1 1 1 1 1 1 1 1 1 1 1 1 1 1 1 1 1 1 1 1 1 1 1 1) memorymapping=yes
New loadshape.293655c0 npts=24 mult=(1 1 1 1 1 1 1 1 1 1 1 1 1 1 1 1 1 1 1 1 1 1 1 1) memorymapping=yes
New loadshape.293656b0 npts=24 mult=(1 1 1 1 1 1 1 1 1 1 1 1 1 1 1 1 1 1 1 1 1 1 1 1) memorymapping=yes
New loadshape.293657b0 npts=24 mult=(1 1 1 1 1 1 1 1 1 1 1 1 1 1 1 1 1 1 1 1 1 1 1 1) memorymapping=yes
New loadshape.293658c0 npts=24 mult=(1 1 1 1 1 1 1 1 1 1 1 1 1 1 1 1 1 1 1 1 1 1 1 1) memorymapping=yes
New loadshape.293659c0 npts=24 mult=(1 1 1 1 1 1 1 1 1 1 1 1 1 1 1 1 1 1 1 1 1 1 1 1) memorymapping=yes
New loadshape.293660b0 npts=24 mult=(1 1 1 1 1 1 1 1 1 1 1 1 1 1 1 1 1 1 1 1 1 1 1 1) memorymapping=yes
New loadshape.293663c0 npts=24 mult=(1 1 1 1 1 1 1 1 1 1 1 1 1 1 1 1 1 1 1 1 1 1 1 1) memorymapping=yes
New loadshape.293664a0 npts=24 mult=(1 1 1 1 1 1 1 1 1 1 1 1 1 1 1 1 1 1 1 1 1 1 1 1) memorymapping=yes
New loadshape.293664b0 npts=24 mult=(1 1 1 1 1 1 1 1 1 1 1 1 1 1 1 1 1 1 1 1 1 1 1 1) memorymapping=yes
New loadshape.293664c0 npts=24 mult=(1 1 1 1 1 1 1 1 1 1 1 1 1 1 1 1 1 1 1 1 1 1 1 1) memorymapping=yes
New loadshape.293665c0 npts=24 mult=(1 1 1 1 1 1 1 1 1 1 1 1 1 1 1 1 1 1 1 1 1 1 1 1) memorymapping=yes
New loadshape.293666c0 npts=24 mult=(1 1 1 1 1 1 1 1 1 1 1 1 1 1 1 1 1 1 1 1 1 1 1 1) memorymapping=yes
New loadshape.293667a0 npts=24 mult=(1 1 1 1 1 1 1 1 1 1 1 1 1 1 1 1 1 1 1 1 1 1 1 1) memorymapping=yes
New loadshape.293668a0 npts=24 mult=(1 1 1 1 1 1 1 1 1 1 1 1 1 1 1 1 1 1 1 1 1 1 1 1) memorymapping=yes
New loadshape.293672a0 npts=24 mult=(1 1 1 1 1 1 1 1 1 1 1 1 1 1 1 1 1 1 1 1 1 1 1 1) memorymapping=yes
New loadshape.293673a0 npts=24 mult=(1 1 1 1 1 1 1 1 1 1 1 1 1 1 1 1 1 1 1 1 1 1 1 1) memorymapping=yes
New loadshape.293681a0 npts=24 mult=(1 1 1 1 1 1 1 1 1 1 1 1 1 1 1 1 1 1 1 1 1 1 1 1) memorymapping=yes
New loadshape.294786c0 npts=24 mult=(1 1 1 1 1 1 1 1 1 1 1 1 1 1 1 1 1 1 1 1 1 1 1 1) memorymapping=yes
New loadshape.294787a0 npts=24 mult=(1 1 1 1 1 1 1 1 1 1 1 1 1 1 1 1 1 1 1 1 1 1 1 1) memorymapping=yes
New loadshape.294788a0 npts=24 mult=(1 1 1 1 1 1 1 1 1 1 1 1 1 1 1 1 1 1 1 1 1 1 1 1) memorymapping=yes
New loadshape.294789a0 npts=24 mult=(1 1 1 1 1 1 1 1 1 1 1 1 1 1 1 1 1 1 1 1 1 1 1 1) memorymapping=yes