//-------------------------------------------------------------------------------------------------------------------------------------------------------------------------------------------------------//
// Sistema Teste - TS ANEEL (LADEE / EPRI)
//-------------------------------------------------------------------------------------------------------------------------------------------------------------------------------------------------------//

// Limpar memória do OpenDSS
Clear


//-------------------------------------------------------------------------------------------------------------------------------------------------------------------------------------------------------//
// Equivalente de Thevenin do Alimentador
//-------------------------------------------------------------------------------------------------------------------------------------------------------------------------------------------------------//

New Circuit.Alimentador phases=3 basekv=13.8 pu=1.045 bus1=barra1A.1.2.3 bus2=barra1.4.4.4 r1=0 x1=0.0001
New Reactor.R_SE phases=1 bus1=barra1.4 bus2=barra1.0 r=2 x=0
