//-------------------------------------------------------------------------------------------------------------------------------------------------------------------------------------------------------//
// Chaves Seccionadoras - CMT
//-------------------------------------------------------------------------------------------------------------------------------------------------------------------------------------------------------//

// Chave Seccionadora do início do alimentador
New Line.CMT phases=4 bus1=barra1A.1.2.3.0 bus2=barra1B.1.2.3.4 r1=0.001 r0=0.001 x1=0 x0=0 c1=0 c0=0 length=0.001 normamps=590 switch=T


