ClearAll

redirect modelo/fonte_ideal.dss
redirect modelo/arranjo.dss
redirect modelo/carga_isource.dss

New Line.L phases=3 bus1=A.1.2.3 bus2=B.1.2.3 geometry=N1 earthmodel=Carson length=0.5 units=km 

redirect modelo/medidor.dss